&HEAD CHID='35af668f' TITLE='g Naberezhnye CHelny pr Mira d 15_07: Scenarij 1' FYI='Fajl sgenerirovan Fenix+ 2 2.1.77.5894 dlya FDS6'/
&DUMP DT_RESTART=1200/
&TIME T_END=1200/
&MISC HUMIDITY=72 P_INF=99700 TMPA=38 SUPPRESSION=.False./
ComputationAreas
&MESH IJK=80,101,17 XB=-122,-54,-36,50,0,15 MPI_PROCESS=0/
&MESH IJK=65,80,41 XB=-54,2,-36,32,0,35 MPI_PROCESS=0/
&MESH IJK=68,21,17 XB=-54,4,32,50,0,15 MPI_PROCESS=0/
&MESH IJK=2,80,17 XB=2,4,-36,32,0,15 MPI_PROCESS=0/
&VENT XB=-54,-54,-36,32,30,35 SURF_ID='OPEN'/
&VENT XB=2,2,-36,32,30,35 SURF_ID='OPEN'/
&VENT XB=-54,2,32,32,30,35 SURF_ID='OPEN'/
&VENT XB=-122,-54,-36,50,15,15 SURF_ID='OPEN'/
&VENT XB=-54,2,32,50,15,15 SURF_ID='OPEN'/
&VENT XB=2,4,-36,50,15,15 SURF_ID='OPEN'/
Pomeshhenie 1
&INIT XB=-49.5,-45,-30.5,-30,0,5 TEMPERATURE=24/
&INIT XB=-67,-45,-30,-29.5,0,5 TEMPERATURE=24/
&INIT XB=-115,-36.5,-29.5,-29,0,5 TEMPERATURE=24/
&INIT XB=-115,-5,-29,-26,0,5 TEMPERATURE=24/
&INIT XB=-115.5,-5,-26,-17,0,5 TEMPERATURE=24/
&INIT XB=-115.5,-6,-17,-6.5,0,5 TEMPERATURE=24/
&INIT XB=-110,-6,-6.5,-2,0,5 TEMPERATURE=24/
&INIT XB=-110,-6.5,-2,21,0,5 TEMPERATURE=24/
&INIT XB=-115.5,-6.5,21,28,0,5 TEMPERATURE=24/
&INIT XB=-115.5,-4.5,28,29,0,5 TEMPERATURE=24/
&INIT XB=-115.5,-73,29,36,0,5 TEMPERATURE=24/
&INIT XB=-53,-4.5,29,36.5,0,5 TEMPERATURE=24/
&INIT XB=-43.5,-4.5,36.5,37,0,5 TEMPERATURE=24/
&INIT XB=-43.5,-4,37,39,0,5 TEMPERATURE=24/
&INIT XB=-43,-4,39,46,0,5 TEMPERATURE=24/
&INIT XB=-50.5,-50,-30.5,-30,0,5 TEMPERATURE=24/
&INIT XB=-50,-49.5,-30.5,-30,0,5 TEMPERATURE=24/
&INIT XB=-36.5,-36,-29.5,-29,0,5 TEMPERATURE=24/
Pomeshhenie 2
&INIT XB=-115.5,-115,-29.5,15,5,10 TEMPERATURE=24/
&INIT XB=-115,-66.5,-29.5,35.5,5,10 TEMPERATURE=24/
&INIT XB=-66.5,-45.5,-30,35.5,5,10 TEMPERATURE=24/
&INIT XB=-45.5,-45,-29.5,35.5,5,10 TEMPERATURE=24/
&INIT XB=-45,-43.5,-29,35.5,5,10 TEMPERATURE=24/
&INIT XB=-43.5,-21,-29,45.5,5,10 TEMPERATURE=24/
&INIT XB=-21,-13.5,-29.5,45.5,5,10 TEMPERATURE=24/
&INIT XB=-13.5,-6.5,-17,45.5,5,10 TEMPERATURE=24/
&INIT XB=-6.5,-4.5,37,45.5,5,10 TEMPERATURE=24/
&INIT XB=-115.5,-115,15,15.5,5,10 TEMPERATURE=24/
Pomeshhenie 3
&INIT XB=-115.5,-115,-29.5,15,10,15 TEMPERATURE=24/
&INIT XB=-115,-66.5,-29.5,35.5,10,15 TEMPERATURE=24/
&INIT XB=-66.5,-45.5,-30,35.5,10,15 TEMPERATURE=24/
&INIT XB=-45.5,-45,-29.5,35.5,10,15 TEMPERATURE=24/
&INIT XB=-45,-43.5,-29,35.5,10,15 TEMPERATURE=24/
&INIT XB=-43.5,-21,-29,45.5,10,15 TEMPERATURE=24/
&INIT XB=-21,-13.5,-29.5,45.5,10,15 TEMPERATURE=24/
&INIT XB=-13.5,-6.5,-17,45.5,10,15 TEMPERATURE=24/
&INIT XB=-6.5,-4.5,37,45.5,10,15 TEMPERATURE=24/
&INIT XB=-115.5,-115,15,15.5,10,15 TEMPERATURE=24/
Pomeshhenie 4
&INIT XB=-44.5,-20.5,-29.5,-29,15,20 TEMPERATURE=24/
&INIT XB=-44.5,-13.5,-29,-22,15,20 TEMPERATURE=24/
&INIT XB=-43,-13.5,-22,-17,15,20 TEMPERATURE=24/
&INIT XB=-43,-6.5,-17,-10.5,15,20 TEMPERATURE=24/
&INIT XB=-43.5,-6.5,-10.5,-2,15,20 TEMPERATURE=24/
&INIT XB=-44.5,-6.5,-2,24.5,15,20 TEMPERATURE=24/
&INIT XB=-44,-6.5,24.5,28,15,20 TEMPERATURE=24/
&INIT XB=-41.5,-6.5,28,28.5,15,20 TEMPERATURE=24/
&INIT XB=-41.5,-26,28.5,29,15,20 TEMPERATURE=24/
&INIT XB=-26,-25.5,28.5,29,15,20 TEMPERATURE=24/
&INIT XB=-25.5,-25,28.5,29,15,20 TEMPERATURE=24/
&INIT XB=-25,-24.5,28.5,29,15,20 TEMPERATURE=24/
&INIT XB=-20.5,-20,-29.5,-29,15,20 TEMPERATURE=24/
Pomeshhenie 5
&INIT XB=-44.5,-20.5,-29.5,-29,20,25 TEMPERATURE=24/
&INIT XB=-44.5,-13.5,-29,-22,20,25 TEMPERATURE=24/
&INIT XB=-43,-13.5,-22,-17,20,25 TEMPERATURE=24/
&INIT XB=-43,-6.5,-17,-10.5,20,25 TEMPERATURE=24/
&INIT XB=-43.5,-6.5,-10.5,-2,20,25 TEMPERATURE=24/
&INIT XB=-44.5,-6.5,-2,24.5,20,25 TEMPERATURE=24/
&INIT XB=-44,-6.5,24.5,28,20,25 TEMPERATURE=24/
&INIT XB=-41.5,-6.5,28,28.5,20,25 TEMPERATURE=24/
&INIT XB=-41.5,-26,28.5,29,20,25 TEMPERATURE=24/
&INIT XB=-26,-25.5,28.5,29,20,25 TEMPERATURE=24/
&INIT XB=-25.5,-25,28.5,29,20,25 TEMPERATURE=24/
&INIT XB=-25,-24.5,28.5,29,20,25 TEMPERATURE=24/
&INIT XB=-20.5,-20,-29.5,-29,20,25 TEMPERATURE=24/
Pomeshhenie 6
&INIT XB=-44.5,-20.5,-29.5,-29,25,30 TEMPERATURE=24/
&INIT XB=-44.5,-13.5,-29,-22,25,30 TEMPERATURE=24/
&INIT XB=-43,-13.5,-22,-17,25,30 TEMPERATURE=24/
&INIT XB=-43,-6.5,-17,-10.5,25,30 TEMPERATURE=24/
&INIT XB=-43.5,-6.5,-10.5,-2,25,30 TEMPERATURE=24/
&INIT XB=-44.5,-6.5,-2,24.5,25,30 TEMPERATURE=24/
&INIT XB=-44,-6.5,24.5,28,25,30 TEMPERATURE=24/
&INIT XB=-41.5,-6.5,28,28.5,25,30 TEMPERATURE=24/
&INIT XB=-41.5,-26,28.5,29,25,30 TEMPERATURE=24/
&INIT XB=-26,-25.5,28.5,29,25,30 TEMPERATURE=24/
&INIT XB=-25.5,-25,28.5,29,25,30 TEMPERATURE=24/
&INIT XB=-25,-24.5,28.5,29,25,30 TEMPERATURE=24/
&INIT XB=-20.5,-20,-29.5,-29,25,30 TEMPERATURE=24/
Pomeshhenie 7
&INIT XB=-44.5,-20.5,-29.5,-29,30,35 TEMPERATURE=24/
&INIT XB=-44.5,-13.5,-29,-22,30,35 TEMPERATURE=24/
&INIT XB=-43,-13.5,-22,-17,30,35 TEMPERATURE=24/
&INIT XB=-43,-6.5,-17,-10.5,30,35 TEMPERATURE=24/
&INIT XB=-43.5,-6.5,-10.5,-2,30,35 TEMPERATURE=24/
&INIT XB=-44.5,-6.5,-2,24.5,30,35 TEMPERATURE=24/
&INIT XB=-44,-6.5,24.5,28,30,35 TEMPERATURE=24/
&INIT XB=-41.5,-6.5,28,28.5,30,35 TEMPERATURE=24/
&INIT XB=-41.5,-26,28.5,29,30,35 TEMPERATURE=24/
&INIT XB=-26,-25.5,28.5,29,30,35 TEMPERATURE=24/
&INIT XB=-25.5,-25,28.5,29,30,35 TEMPERATURE=24/
&INIT XB=-25,-24.5,28.5,29,30,35 TEMPERATURE=24/
&INIT XB=-20.5,-20,-29.5,-29,30,35 TEMPERATURE=24/
&SPEC ID='OXYGEN' LUMPED_COMPONENT_ONLY=.True./
&SPEC ID='NITROGEN' LUMPED_COMPONENT_ONLY=.True./
&SPEC ID='CARBON DIOXIDE' LUMPED_COMPONENT_ONLY=.True./
&SPEC ID='CARBON MONOXIDE' LUMPED_COMPONENT_ONLY=.True./
&SPEC ID='HYDROGEN CHLORIDE' LUMPED_COMPONENT_ONLY=.True./
&SPEC ID='WATER VAPOR' LUMPED_COMPONENT_ONLY=.True./
&SPEC ID='SOOT' LUMPED_COMPONENT_ONLY=.True./
&SPEC ID='Magazin' MW=87.17236/
&SPEC ID='AIR' BACKGROUND=.True. SPEC_ID(1:2)='OXYGEN','NITROGEN' VOLUME_FRACTION(1:2)=1,3.7619/
&SPEC ID='PRODUCTS' SPEC_ID(1:6)='SOOT','CARBON DIOXIDE','CARBON MONOXIDE','HYDROGEN CHLORIDE','WATER VAPOR','NITROGEN' VOLUME_FRACTION(1:6)=0.247960124674236,1.68364798509413,0.133823566499227,0.0549893743825584,6.30479121815213,12.8103905882408/
&REAC FUEL='Magazin' HEAT_OF_COMBUSTION=15800 SPEC_ID_NU(1:3)='Magazin','AIR','PRODUCTS' NU(1:3)=-1,-3.40529801117542,1/
Clock
&DEVC ID='CLOCK' FYI='CLOCK' QUANTITY='TIME' XYZ=-88,7,7.5/
Elements
Lestnica 1
&OBST XB=-112,-111.5,-27,-26.5,2,2 RGB=255,0,0/
&OBST XB=-112,-111.5,-27,-26.5,2,2 RGB=255,0,0/
&OBST XB=-112,-111.5,-26.5,-26,1.5,1.5 RGB=255,0,0/
&OBST XB=-112,-111.5,-26.5,-26,1.5,1.5 RGB=255,0,0/
&OBST XB=-112,-111.5,-26,-25.5,1,1 RGB=255,0,0/
&OBST XB=-112,-111.5,-26,-25.5,1,1 RGB=255,0,0/
&OBST XB=-112,-111.5,-26,-25.5,1,1 RGB=255,0,0/
&OBST XB=-112,-111.5,-25.5,-25,0.5,0.5 RGB=255,0,0/
&OBST XB=-112,-111.5,-25.5,-25,0.5,0.5 RGB=255,0,0/
&OBST XB=-112,-111.5,-25.5,-25,1,1 RGB=255,0,0/
&OBST XB=-112,-111.5,-25,-24.5,0,0 RGB=255,0,0/
&OBST XB=-112,-111.5,-25,-24.5,0,0.5 RGB=255,0,0/
&OBST XB=-111.5,-111,-27,-26.5,2,2 RGB=255,0,0/
&OBST XB=-111.5,-111,-27,-26.5,2,2 RGB=255,0,0/
&OBST XB=-111.5,-111,-27,-26.5,2,2 RGB=255,0,0/
&OBST XB=-111.5,-111,-26.5,-26,1.5,1.5 RGB=255,0,0/
&OBST XB=-111.5,-111,-26.5,-26,1.5,1.5 RGB=255,0,0/
&OBST XB=-111.5,-111,-26,-25.5,1,1 RGB=255,0,0/
&OBST XB=-111.5,-111,-26,-25.5,1,1 RGB=255,0,0/
&OBST XB=-111.5,-111,-25.5,-25,0.5,0.5 RGB=255,0,0/
&OBST XB=-111.5,-111,-25.5,-25,0.5,0.5 RGB=255,0,0/
&OBST XB=-111.5,-111,-25,-24.5,0,0 RGB=255,0,0/
&OBST XB=-111.5,-111,-25,-24.5,0,0.5 RGB=255,0,0/
&OBST XB=-111,-110.5,-27,-26.5,2,2 RGB=255,0,0/
&OBST XB=-111,-110.5,-27,-26.5,2,2 RGB=255,0,0/
&OBST XB=-111,-110.5,-26.5,-26,1.5,1.5 RGB=255,0,0/
&OBST XB=-111,-110.5,-26.5,-26,1.5,1.5 RGB=255,0,0/
&OBST XB=-111,-110.5,-26.5,-26,1.5,1.5 RGB=255,0,0/
&OBST XB=-111,-110.5,-26,-25.5,1,1 RGB=255,0,0/
&OBST XB=-111,-110.5,-26,-25.5,1,1 RGB=255,0,0/
&OBST XB=-111,-110.5,-25.5,-25,0.5,0.5 RGB=255,0,0/
&OBST XB=-111,-110.5,-25.5,-25,0.5,0.5 RGB=255,0,0/
&OBST XB=-111,-110.5,-25,-24.5,0,0 RGB=255,0,0/
&OBST XB=-111,-110.5,-25,-24.5,0,0.5 RGB=255,0,0/
&OBST XB=-110.5,-110,-27,-26.5,2,2 RGB=255,0,0/
&OBST XB=-110.5,-110,-27,-26.5,2,2 RGB=255,0,0/
&OBST XB=-110.5,-110,-26.5,-26,1.5,1.5 RGB=255,0,0/
&OBST XB=-110.5,-110,-26.5,-26,1.5,1.5 RGB=255,0,0/
&OBST XB=-110.5,-110,-26,-25.5,1,1 RGB=255,0,0/
&OBST XB=-110.5,-110,-26,-25.5,1,1 RGB=255,0,0/
&OBST XB=-110.5,-110,-25.5,-25,0.5,0.5 RGB=255,0,0/
&OBST XB=-110.5,-110,-25.5,-25,0.5,0.5 RGB=255,0,0/
&OBST XB=-110.5,-110,-25.5,-25,0.5,0.5 RGB=255,0,0/
&OBST XB=-110.5,-110,-25,-24.5,0,0 RGB=255,0,0/
&OBST XB=-110.5,-110,-25,-24.5,0,0.5 RGB=255,0,0/
&OBST XB=-110.5,-110,-25,-24.5,0.5,0.5 RGB=255,0,0/
&OBST XB=-112,-111.5,-25.5,-25.5,0.5,1 RGB=255,0,0/
&OBST XB=-112,-111.5,-25,-25,0.5,1 RGB=255,0,0/
&OBST XB=-112,-111.5,-26,-26,1,1.5 RGB=255,0,0/
&OBST XB=-112,-111.5,-26.5,-26.5,1.5,2 RGB=255,0,0/
&OBST XB=-112,-111.5,-27,-27,2,2.5 RGB=255,0,0/
&OBST XB=-111.5,-111,-25.5,-25.5,0.5,1 RGB=255,0,0/
&OBST XB=-111.5,-111,-26,-26,1,1.5 RGB=255,0,0/
&OBST XB=-111.5,-111,-26.5,-26.5,1.5,2 RGB=255,0,0/
&OBST XB=-111.5,-111,-27,-27,2,2.5 RGB=255,0,0/
&OBST XB=-111.5,-111,-27,-27,2,2.5 RGB=255,0,0/
&OBST XB=-111,-110.5,-25.5,-25.5,0.5,1 RGB=255,0,0/
&OBST XB=-111,-110.5,-26,-26,1,1.5 RGB=255,0,0/
&OBST XB=-111,-110.5,-26.5,-26.5,1.5,2 RGB=255,0,0/
&OBST XB=-111,-110.5,-26.5,-26.5,1.5,2 RGB=255,0,0/
&OBST XB=-111,-110.5,-27,-27,2,2.5 RGB=255,0,0/
&OBST XB=-110.5,-110,-25.5,-25.5,0.5,1 RGB=255,0,0/
&OBST XB=-110.5,-110,-25.5,-25.5,0.5,1 RGB=255,0,0/
&OBST XB=-110.5,-110,-26,-26,1,1.5 RGB=255,0,0/
&OBST XB=-110.5,-110,-26.5,-26.5,1.5,2 RGB=255,0,0/
&OBST XB=-110.5,-110,-27,-27,2,2.5 RGB=255,0,0/
&OBST XB=-112,-112,-25.5,-25,0.5,1 RGB=255,0,0/
&OBST XB=-110.5,-110.5,-25.5,-25,0.5,1 RGB=255,0,0/
Lestnica 2
&OBST XB=-114.5,-114,-27,-26.5,2.5,3 RGB=255,0,0/
&OBST XB=-114.5,-114,-27,-26.5,3,3 RGB=255,0,0/
&OBST XB=-114.5,-114,-26.5,-26,3,3.5 RGB=255,0,0/
&OBST XB=-114.5,-114,-26.5,-26,3.5,3.5 RGB=255,0,0/
&OBST XB=-114.5,-114,-26.5,-26,3.5,3.5 RGB=255,0,0/
&OBST XB=-114.5,-114,-26,-25.5,3.5,4 RGB=255,0,0/
&OBST XB=-114.5,-114,-26,-25.5,4,4 RGB=255,0,0/
&OBST XB=-114.5,-114,-25.5,-25,4,4.5 RGB=255,0,0/
&OBST XB=-114.5,-114,-25.5,-25,4.5,4.5 RGB=255,0,0/
&OBST XB=-114.5,-114,-25,-24.5,4.5,4.5 RGB=255,0,0/
&OBST XB=-114.5,-114,-25,-24.5,5,5 RGB=255,0,0/
&OBST XB=-114,-113.5,-27,-26.5,2.5,3 RGB=255,0,0/
&OBST XB=-114,-113.5,-27,-26.5,3,3 RGB=255,0,0/
&OBST XB=-114,-113.5,-26.5,-26,3,3.5 RGB=255,0,0/
&OBST XB=-114,-113.5,-26.5,-26,3.5,3.5 RGB=255,0,0/
&OBST XB=-114,-113.5,-26,-25.5,3.5,4 RGB=255,0,0/
&OBST XB=-114,-113.5,-26,-25.5,4,4 RGB=255,0,0/
&OBST XB=-114,-113.5,-25.5,-25,4,4.5 RGB=255,0,0/
&OBST XB=-114,-113.5,-25.5,-25,4.5,4.5 RGB=255,0,0/
&OBST XB=-114,-113.5,-25,-24.5,4.5,4.5 RGB=255,0,0/
&OBST XB=-114,-113.5,-25,-24.5,4.5,4.5 RGB=255,0,0/
&OBST XB=-114,-113.5,-25,-24.5,5,5 RGB=255,0,0/
&OBST XB=-113.5,-113,-27,-26.5,2.5,3 RGB=255,0,0/
&OBST XB=-113.5,-113,-27,-26.5,3,3 RGB=255,0,0/
&OBST XB=-113.5,-113,-26.5,-26,3,3.5 RGB=255,0,0/
&OBST XB=-113.5,-113,-26.5,-26,3.5,3.5 RGB=255,0,0/
&OBST XB=-113.5,-113,-26,-25.5,3.5,4 RGB=255,0,0/
&OBST XB=-113.5,-113,-26,-25.5,4,4 RGB=255,0,0/
&OBST XB=-113.5,-113,-25.5,-25,4,4.5 RGB=255,0,0/
&OBST XB=-113.5,-113,-25.5,-25,4,4.5 RGB=255,0,0/
&OBST XB=-113.5,-113,-25.5,-25,4.5,4.5 RGB=255,0,0/
&OBST XB=-113.5,-113,-25,-24.5,4.5,4.5 RGB=255,0,0/
&OBST XB=-113.5,-113,-25,-24.5,5,5 RGB=255,0,0/
&OBST XB=-113,-112.5,-27,-26.5,2.5,3 RGB=255,0,0/
&OBST XB=-113,-112.5,-27,-26.5,3,3 RGB=255,0,0/
&OBST XB=-113,-112.5,-27,-26.5,3,3 RGB=255,0,0/
&OBST XB=-113,-112.5,-26.5,-26,3,3.5 RGB=255,0,0/
&OBST XB=-113,-112.5,-26.5,-26,3.5,3.5 RGB=255,0,0/
&OBST XB=-113,-112.5,-26,-25.5,3.5,4 RGB=255,0,0/
&OBST XB=-113,-112.5,-26,-25.5,4,4 RGB=255,0,0/
&OBST XB=-113,-112.5,-25.5,-25,4,4.5 RGB=255,0,0/
&OBST XB=-113,-112.5,-25.5,-25,4.5,4.5 RGB=255,0,0/
&OBST XB=-113,-112.5,-25,-24.5,4.5,4.5 RGB=255,0,0/
&OBST XB=-113,-112.5,-25,-24.5,5,5 RGB=255,0,0/
&OBST XB=-114.5,-114,-24.5,-24.5,4.5,5 RGB=255,0,0/
&OBST XB=-114,-113.5,-24.5,-24.5,4.5,5 RGB=255,0,0/
&OBST XB=-114,-113.5,-24.5,-24.5,4.5,5 RGB=255,0,0/
&OBST XB=-113.5,-113,-24.5,-24.5,4.5,5 RGB=255,0,0/
&OBST XB=-113,-112.5,-24.5,-24.5,4.5,5 RGB=255,0,0/
&OBST XB=-113.5,-113.5,-25,-24.5,4.5,5 RGB=255,0,0/
&OBST XB=-113.5,-113.5,-25,-24.5,4.5,5 RGB=255,0,0/
Lestnica 3
&OBST XB=-107,-106.5,30,30.5,0,0 RGB=255,0,0/
&OBST XB=-107,-106.5,30,30.5,0,0.5 RGB=255,0,0/
&OBST XB=-107,-106.5,30.5,31,0,0 RGB=255,0,0/
&OBST XB=-107,-106.5,30.5,31,0,0.5 RGB=255,0,0/
&OBST XB=-107,-106.5,31,31.5,0,0 RGB=255,0,0/
&OBST XB=-107,-106.5,31,31.5,0,0.5 RGB=255,0,0/
&OBST XB=-107,-106.5,31.5,32,0,0 RGB=255,0,0/
&OBST XB=-107,-106.5,31.5,32,0,0.5 RGB=255,0,0/
&OBST XB=-107,-106.5,31.5,32,0.5,0.5 RGB=255,0,0/
&OBST XB=-106.5,-106,30,30.5,0.5,0.5 RGB=255,0,0/
&OBST XB=-106.5,-106,30,30.5,0.5,1 RGB=255,0,0/
&OBST XB=-106.5,-106,30,30.5,1,1 RGB=255,0,0/
&OBST XB=-106.5,-106,30,30.5,1,1 RGB=255,0,0/
&OBST XB=-106.5,-106,30.5,31,0.5,0.5 RGB=255,0,0/
&OBST XB=-106.5,-106,30.5,31,0.5,1 RGB=255,0,0/
&OBST XB=-106.5,-106,30.5,31,1,1 RGB=255,0,0/
&OBST XB=-106.5,-106,31,31.5,0.5,0.5 RGB=255,0,0/
&OBST XB=-106.5,-106,31,31.5,0.5,1 RGB=255,0,0/
&OBST XB=-106.5,-106,31,31.5,1,1 RGB=255,0,0/
&OBST XB=-106.5,-106,31.5,32,0.5,0.5 RGB=255,0,0/
&OBST XB=-106.5,-106,31.5,32,0.5,1 RGB=255,0,0/
&OBST XB=-106.5,-106,31.5,32,1,1 RGB=255,0,0/
&OBST XB=-106,-105.5,30,30.5,1,1.5 RGB=255,0,0/
&OBST XB=-106,-105.5,30,30.5,1.5,1.5 RGB=255,0,0/
&OBST XB=-106,-105.5,30.5,31,1,1.5 RGB=255,0,0/
&OBST XB=-106,-105.5,30.5,31,1.5,1.5 RGB=255,0,0/
&OBST XB=-106,-105.5,31,31.5,1,1.5 RGB=255,0,0/
&OBST XB=-106,-105.5,31,31.5,1.5,1.5 RGB=255,0,0/
&OBST XB=-106,-105.5,31,31.5,1.5,1.5 RGB=255,0,0/
&OBST XB=-106,-105.5,31.5,32,1,1.5 RGB=255,0,0/
&OBST XB=-106,-105.5,31.5,32,1.5,1.5 RGB=255,0,0/
&OBST XB=-105.5,-105,30,30.5,1.5,2 RGB=255,0,0/
&OBST XB=-105.5,-105,30,30.5,2,2 RGB=255,0,0/
&OBST XB=-105.5,-105,30.5,31,1.5,2 RGB=255,0,0/
&OBST XB=-105.5,-105,30.5,31,2,2 RGB=255,0,0/
&OBST XB=-105.5,-105,30.5,31,2,2 RGB=255,0,0/
&OBST XB=-105.5,-105,31,31.5,1.5,2 RGB=255,0,0/
&OBST XB=-105.5,-105,31,31.5,2,2 RGB=255,0,0/
&OBST XB=-105.5,-105,31,31.5,2,2 RGB=255,0,0/
&OBST XB=-105.5,-105,31.5,32,1.5,2 RGB=255,0,0/
&OBST XB=-105.5,-105,31.5,32,2,2 RGB=255,0,0/
&OBST XB=-105,-104.5,30,30.5,2,2.5 RGB=255,0,0/
&OBST XB=-105,-104.5,30,30.5,2.5,2.5 RGB=255,0,0/
&OBST XB=-105,-104.5,30.5,31,2,2.5 RGB=255,0,0/
&OBST XB=-105,-104.5,30.5,31,2.5,2.5 RGB=255,0,0/
&OBST XB=-105,-104.5,30.5,31,2.5,2.5 RGB=255,0,0/
&OBST XB=-105,-104.5,31,31.5,2,2.5 RGB=255,0,0/
&OBST XB=-105,-104.5,31,31.5,2.5,2.5 RGB=255,0,0/
&OBST XB=-105,-104.5,31.5,32,2,2.5 RGB=255,0,0/
&OBST XB=-105,-104.5,31.5,32,2.5,2.5 RGB=255,0,0/
Lestnica 4
&OBST XB=-107,-106.5,33.5,34,4.5,4.5 RGB=255,0,0/
&OBST XB=-107,-106.5,33.5,34,5,5 RGB=255,0,0/
&OBST XB=-107,-106.5,34,34.5,4.5,4.5 RGB=255,0,0/
&OBST XB=-107,-106.5,34,34.5,4.5,4.5 RGB=255,0,0/
&OBST XB=-107,-106.5,34,34.5,5,5 RGB=255,0,0/
&OBST XB=-107,-106.5,34.5,35,4.5,4.5 RGB=255,0,0/
&OBST XB=-107,-106.5,34.5,35,5,5 RGB=255,0,0/
&OBST XB=-107,-106.5,35,35.5,4.5,4.5 RGB=255,0,0/
&OBST XB=-107,-106.5,35,35.5,5,5 RGB=255,0,0/
&OBST XB=-106.5,-106,33.5,34,4,4 RGB=255,0,0/
&OBST XB=-106.5,-106,33.5,34,4,4 RGB=255,0,0/
&OBST XB=-106.5,-106,33.5,34,4.5,4.5 RGB=255,0,0/
&OBST XB=-106.5,-106,34,34.5,4,4 RGB=255,0,0/
&OBST XB=-106.5,-106,34,34.5,4,4 RGB=255,0,0/
&OBST XB=-106.5,-106,34,34.5,4,4 RGB=255,0,0/
&OBST XB=-106.5,-106,34,34.5,4.5,4.5 RGB=255,0,0/
&OBST XB=-106.5,-106,34.5,35,4,4 RGB=255,0,0/
&OBST XB=-106.5,-106,34.5,35,4,4 RGB=255,0,0/
&OBST XB=-106.5,-106,34.5,35,4,4 RGB=255,0,0/
&OBST XB=-106.5,-106,34.5,35,4.5,4.5 RGB=255,0,0/
&OBST XB=-106.5,-106,35,35.5,4,4 RGB=255,0,0/
&OBST XB=-106.5,-106,35,35.5,4,4 RGB=255,0,0/
&OBST XB=-106.5,-106,35,35.5,4.5,4.5 RGB=255,0,0/
&OBST XB=-106,-105.5,33.5,34,3.5,3.5 RGB=255,0,0/
&OBST XB=-106,-105.5,33.5,34,3.5,3.5 RGB=255,0,0/
&OBST XB=-106,-105.5,34,34.5,3.5,3.5 RGB=255,0,0/
&OBST XB=-106,-105.5,34,34.5,3.5,3.5 RGB=255,0,0/
&OBST XB=-106,-105.5,34.5,35,3.5,3.5 RGB=255,0,0/
&OBST XB=-106,-105.5,34.5,35,3.5,3.5 RGB=255,0,0/
&OBST XB=-106,-105.5,35,35.5,3.5,3.5 RGB=255,0,0/
&OBST XB=-106,-105.5,35,35.5,3.5,3.5 RGB=255,0,0/
&OBST XB=-105.5,-105,33.5,34,3,3 RGB=255,0,0/
&OBST XB=-105.5,-105,33.5,34,3,3 RGB=255,0,0/
&OBST XB=-105.5,-105,33.5,34,3,3 RGB=255,0,0/
&OBST XB=-105.5,-105,34,34.5,3,3 RGB=255,0,0/
&OBST XB=-105.5,-105,34,34.5,3,3 RGB=255,0,0/
&OBST XB=-105.5,-105,34.5,35,3,3 RGB=255,0,0/
&OBST XB=-105.5,-105,34.5,35,3,3 RGB=255,0,0/
&OBST XB=-105.5,-105,35,35.5,3,3 RGB=255,0,0/
&OBST XB=-105.5,-105,35,35.5,3,3 RGB=255,0,0/
&OBST XB=-105.5,-105,35,35.5,3,3 RGB=255,0,0/
&OBST XB=-105,-104.5,33.5,34,2.5,2.5 RGB=255,0,0/
&OBST XB=-105,-104.5,33.5,34,2.5,2.5 RGB=255,0,0/
&OBST XB=-105,-104.5,34,34.5,2.5,2.5 RGB=255,0,0/
&OBST XB=-105,-104.5,34,34.5,2.5,2.5 RGB=255,0,0/
&OBST XB=-105,-104.5,34.5,35,2.5,2.5 RGB=255,0,0/
&OBST XB=-105,-104.5,34.5,35,2.5,2.5 RGB=255,0,0/
&OBST XB=-105,-104.5,35,35.5,2.5,2.5 RGB=255,0,0/
&OBST XB=-105,-104.5,35,35.5,2.5,2.5 RGB=255,0,0/
&OBST XB=-105,-104.5,35,35.5,2.5,2.5 RGB=255,0,0/
&OBST XB=-105,-105,33.5,34,2.5,3 RGB=255,0,0/
&OBST XB=-105.5,-105.5,33.5,34,3,3.5 RGB=255,0,0/
&OBST XB=-105.5,-105.5,33.5,34,3,3.5 RGB=255,0,0/
&OBST XB=-106,-106,33.5,34,3.5,4 RGB=255,0,0/
&OBST XB=-106.5,-106.5,33.5,34,4,4.5 RGB=255,0,0/
&OBST XB=-107,-107,33.5,34,4.5,5 RGB=255,0,0/
&OBST XB=-105,-105,34,34.5,2.5,3 RGB=255,0,0/
&OBST XB=-105.5,-105.5,34,34.5,3,3.5 RGB=255,0,0/
&OBST XB=-106,-106,34,34.5,3.5,4 RGB=255,0,0/
&OBST XB=-106.5,-106.5,34,34.5,4,4.5 RGB=255,0,0/
&OBST XB=-106.5,-106.5,34,34.5,4,4.5 RGB=255,0,0/
&OBST XB=-107,-107,34,34.5,4.5,5 RGB=255,0,0/
&OBST XB=-107,-107,34,34.5,4.5,5 RGB=255,0,0/
&OBST XB=-105,-105,34.5,35,2.5,3 RGB=255,0,0/
&OBST XB=-105.5,-105.5,34.5,35,3,3.5 RGB=255,0,0/
&OBST XB=-106,-106,34.5,35,3.5,4 RGB=255,0,0/
&OBST XB=-106.5,-106.5,34.5,35,4,4.5 RGB=255,0,0/
&OBST XB=-106.5,-106.5,34.5,35,4,4.5 RGB=255,0,0/
&OBST XB=-107,-107,34.5,35,4.5,5 RGB=255,0,0/
&OBST XB=-105,-105,35,35.5,2.5,3 RGB=255,0,0/
&OBST XB=-105,-105,35,35.5,2.5,3 RGB=255,0,0/
&OBST XB=-105.5,-105.5,35,35.5,3,3.5 RGB=255,0,0/
&OBST XB=-105.5,-105.5,35,35.5,3,3.5 RGB=255,0,0/
&OBST XB=-106,-106,35,35.5,3.5,4 RGB=255,0,0/
&OBST XB=-106.5,-106.5,35,35.5,4,4.5 RGB=255,0,0/
&OBST XB=-107,-107,35,35.5,4.5,5 RGB=255,0,0/
&OBST XB=-107,-106.5,34.5,34.5,4.5,5 RGB=255,0,0/
&OBST XB=-107,-106.5,34.5,34.5,4.5,5 RGB=255,0,0/
&OBST XB=-106.5,-106,34.5,34.5,4,4.5 RGB=255,0,0/
&OBST XB=-106.5,-106,34.5,34.5,4,4.5 RGB=255,0,0/
Lestnica 11
&OBST XB=-78.5,-78,33,33.5,2,2 RGB=255,0,0/
&OBST XB=-78.5,-78,33,33.5,2,2 RGB=255,0,0/
&OBST XB=-78.5,-78,33,33.5,2.5,2.5 RGB=255,0,0/
&OBST XB=-78.5,-78,33.5,34,2,2 RGB=255,0,0/
&OBST XB=-78.5,-78,33.5,34,2,2 RGB=255,0,0/
&OBST XB=-78.5,-78,33.5,34,2.5,2.5 RGB=255,0,0/
&OBST XB=-78.5,-78,34,34.5,2,2 RGB=255,0,0/
&OBST XB=-78.5,-78,34,34.5,2,2 RGB=255,0,0/
&OBST XB=-78.5,-78,34,34.5,2,2 RGB=255,0,0/
&OBST XB=-78.5,-78,34,34.5,2.5,2.5 RGB=255,0,0/
&OBST XB=-78.5,-78,34.5,35,2,2 RGB=255,0,0/
&OBST XB=-78.5,-78,34.5,35,2,2 RGB=255,0,0/
&OBST XB=-78.5,-78,34.5,35,2.5,2.5 RGB=255,0,0/
&OBST XB=-78.5,-78,35,35.5,2,2 RGB=255,0,0/
&OBST XB=-78.5,-78,35,35.5,2,2 RGB=255,0,0/
&OBST XB=-78.5,-78,35,35.5,2.5,2.5 RGB=255,0,0/
&OBST XB=-78,-77.5,33,33.5,1.5,1.5 RGB=255,0,0/
&OBST XB=-78,-77.5,33,33.5,1.5,1.5 RGB=255,0,0/
&OBST XB=-78,-77.5,33.5,34,1.5,1.5 RGB=255,0,0/
&OBST XB=-78,-77.5,33.5,34,1.5,1.5 RGB=255,0,0/
&OBST XB=-78,-77.5,33.5,34,1.5,1.5 RGB=255,0,0/
&OBST XB=-78,-77.5,34,34.5,1.5,1.5 RGB=255,0,0/
&OBST XB=-78,-77.5,34,34.5,1.5,1.5 RGB=255,0,0/
&OBST XB=-78,-77.5,34.5,35,1.5,1.5 RGB=255,0,0/
&OBST XB=-78,-77.5,34.5,35,1.5,1.5 RGB=255,0,0/
&OBST XB=-78,-77.5,34.5,35,1.5,1.5 RGB=255,0,0/
&OBST XB=-78,-77.5,35,35.5,1.5,1.5 RGB=255,0,0/
&OBST XB=-78,-77.5,35,35.5,1.5,1.5 RGB=255,0,0/
&OBST XB=-77.5,-77,33,33.5,1,1 RGB=255,0,0/
&OBST XB=-77.5,-77,33,33.5,1,1 RGB=255,0,0/
&OBST XB=-77.5,-77,33.5,34,1,1 RGB=255,0,0/
&OBST XB=-77.5,-77,33.5,34,1,1 RGB=255,0,0/
&OBST XB=-77.5,-77,33.5,34,1,1 RGB=255,0,0/
&OBST XB=-77.5,-77,34,34.5,1,1 RGB=255,0,0/
&OBST XB=-77.5,-77,34,34.5,1,1 RGB=255,0,0/
&OBST XB=-77.5,-77,34.5,35,1,1 RGB=255,0,0/
&OBST XB=-77.5,-77,34.5,35,1,1 RGB=255,0,0/
&OBST XB=-77.5,-77,35,35.5,1,1 RGB=255,0,0/
&OBST XB=-77.5,-77,35,35.5,1,1 RGB=255,0,0/
&OBST XB=-77,-76.5,33,33.5,0.5,0.5 RGB=255,0,0/
&OBST XB=-77,-76.5,33,33.5,0.5,0.5 RGB=255,0,0/
&OBST XB=-77,-76.5,33,33.5,0.5,0.5 RGB=255,0,0/
&OBST XB=-77,-76.5,33,33.5,0.5,0.5 RGB=255,0,0/
&OBST XB=-77,-76.5,33.5,34,0.5,0.5 RGB=255,0,0/
&OBST XB=-77,-76.5,33.5,34,0.5,0.5 RGB=255,0,0/
&OBST XB=-77,-76.5,33.5,34,0.5,0.5 RGB=255,0,0/
&OBST XB=-77,-76.5,34,34.5,0.5,0.5 RGB=255,0,0/
&OBST XB=-77,-76.5,34,34.5,0.5,0.5 RGB=255,0,0/
&OBST XB=-77,-76.5,34,34.5,0.5,0.5 RGB=255,0,0/
&OBST XB=-77,-76.5,34.5,35,0.5,0.5 RGB=255,0,0/
&OBST XB=-77,-76.5,34.5,35,0.5,0.5 RGB=255,0,0/
&OBST XB=-77,-76.5,34.5,35,0.5,0.5 RGB=255,0,0/
&OBST XB=-77,-76.5,35,35.5,0.5,0.5 RGB=255,0,0/
&OBST XB=-77,-76.5,35,35.5,0.5,0.5 RGB=255,0,0/
&OBST XB=-77,-76.5,35,35.5,0.5,0.5 RGB=255,0,0/
&OBST XB=-77,-76.5,35,35.5,0.5,0.5 RGB=255,0,0/
&OBST XB=-76.5,-76,33,33.5,0,0 RGB=255,0,0/
&OBST XB=-76.5,-76,33,33.5,0,0 RGB=255,0,0/
&OBST XB=-76.5,-76,33.5,34,0,0 RGB=255,0,0/
&OBST XB=-76.5,-76,34,34.5,0,0 RGB=255,0,0/
&OBST XB=-76.5,-76,34.5,35,0,0 RGB=255,0,0/
&OBST XB=-76.5,-76,35,35.5,0,0 RGB=255,0,0/
&OBST XB=-76.5,-76.5,33,33.5,0,0.5 RGB=255,0,0/
&OBST XB=-76.5,-76.5,33,33.5,0,0.5 RGB=255,0,0/
&OBST XB=-77,-77,33,33.5,0.5,1 RGB=255,0,0/
&OBST XB=-77.5,-77.5,33,33.5,1,1.5 RGB=255,0,0/
&OBST XB=-78,-78,33,33.5,1.5,2 RGB=255,0,0/
&OBST XB=-78.5,-78.5,33,33.5,2,2.5 RGB=255,0,0/
&OBST XB=-76.5,-76.5,33.5,34,0,0.5 RGB=255,0,0/
&OBST XB=-77,-77,33.5,34,0.5,1 RGB=255,0,0/
&OBST XB=-77.5,-77.5,33.5,34,1,1.5 RGB=255,0,0/
&OBST XB=-77.5,-77.5,33.5,34,1,1.5 RGB=255,0,0/
&OBST XB=-78,-78,33.5,34,1.5,2 RGB=255,0,0/
&OBST XB=-78.5,-78.5,33.5,34,2,2.5 RGB=255,0,0/
&OBST XB=-76.5,-76.5,34,34.5,0,0.5 RGB=255,0,0/
&OBST XB=-77,-77,34,34.5,0.5,1 RGB=255,0,0/
&OBST XB=-77.5,-77.5,34,34.5,1,1.5 RGB=255,0,0/
&OBST XB=-78,-78,34,34.5,1.5,2 RGB=255,0,0/
&OBST XB=-78.5,-78.5,34,34.5,2,2.5 RGB=255,0,0/
&OBST XB=-78.5,-78.5,34,34.5,2,2.5 RGB=255,0,0/
&OBST XB=-76.5,-76.5,34.5,35,0,0.5 RGB=255,0,0/
&OBST XB=-77,-77,34.5,35,0.5,1 RGB=255,0,0/
&OBST XB=-77.5,-77.5,34.5,35,1,1.5 RGB=255,0,0/
&OBST XB=-77.5,-77.5,34.5,35,1,1.5 RGB=255,0,0/
&OBST XB=-78,-78,34.5,35,1.5,2 RGB=255,0,0/
&OBST XB=-78.5,-78.5,34.5,35,2,2.5 RGB=255,0,0/
&OBST XB=-76.5,-76.5,35,35.5,0,0.5 RGB=255,0,0/
&OBST XB=-76.5,-76.5,35,35.5,0,0.5 RGB=255,0,0/
&OBST XB=-77,-77,35,35.5,0.5,1 RGB=255,0,0/
&OBST XB=-77.5,-77.5,35,35.5,1,1.5 RGB=255,0,0/
&OBST XB=-78,-78,35,35.5,1.5,2 RGB=255,0,0/
&OBST XB=-78.5,-78.5,35,35.5,2,2.5 RGB=255,0,0/
Lestnica 12
&OBST XB=-78.5,-78,29.5,30,2.5,2.5 RGB=255,0,0/
&OBST XB=-78.5,-78,29.5,30,2.5,3 RGB=255,0,0/
&OBST XB=-78.5,-78,29.5,30,3,3 RGB=255,0,0/
&OBST XB=-78.5,-78,29.5,30,3,3 RGB=255,0,0/
&OBST XB=-78.5,-78,30,30.5,2.5,2.5 RGB=255,0,0/
&OBST XB=-78.5,-78,30,30.5,2.5,3 RGB=255,0,0/
&OBST XB=-78.5,-78,30,30.5,3,3 RGB=255,0,0/
&OBST XB=-78.5,-78,30.5,31,2.5,2.5 RGB=255,0,0/
&OBST XB=-78.5,-78,30.5,31,2.5,3 RGB=255,0,0/
&OBST XB=-78.5,-78,30.5,31,3,3 RGB=255,0,0/
&OBST XB=-78.5,-78,31,31.5,2.5,2.5 RGB=255,0,0/
&OBST XB=-78.5,-78,31,31.5,2.5,3 RGB=255,0,0/
&OBST XB=-78.5,-78,31,31.5,3,3 RGB=255,0,0/
&OBST XB=-78.5,-78,31.5,32,2.5,2.5 RGB=255,0,0/
&OBST XB=-78.5,-78,31.5,32,2.5,3 RGB=255,0,0/
&OBST XB=-78.5,-78,31.5,32,3,3 RGB=255,0,0/
&OBST XB=-78.5,-78,31.5,32,3,3 RGB=255,0,0/
&OBST XB=-78,-77.5,29.5,30,3,3.5 RGB=255,0,0/
&OBST XB=-78,-77.5,29.5,30,3.5,3.5 RGB=255,0,0/
&OBST XB=-78,-77.5,30,30.5,3,3.5 RGB=255,0,0/
&OBST XB=-78,-77.5,30,30.5,3.5,3.5 RGB=255,0,0/
&OBST XB=-78,-77.5,30.5,31,3,3.5 RGB=255,0,0/
&OBST XB=-78,-77.5,30.5,31,3.5,3.5 RGB=255,0,0/
&OBST XB=-78,-77.5,31,31.5,3,3.5 RGB=255,0,0/
&OBST XB=-78,-77.5,31,31.5,3.5,3.5 RGB=255,0,0/
&OBST XB=-78,-77.5,31.5,32,3,3.5 RGB=255,0,0/
&OBST XB=-78,-77.5,31.5,32,3.5,3.5 RGB=255,0,0/
&OBST XB=-77.5,-77,29.5,30,4,4 RGB=255,0,0/
&OBST XB=-77.5,-77,29.5,30,4,4 RGB=255,0,0/
&OBST XB=-77.5,-77,30,30.5,4,4 RGB=255,0,0/
&OBST XB=-77.5,-77,30,30.5,4,4 RGB=255,0,0/
&OBST XB=-77.5,-77,30,30.5,4,4 RGB=255,0,0/
&OBST XB=-77.5,-77,30.5,31,4,4 RGB=255,0,0/
&OBST XB=-77.5,-77,30.5,31,4,4 RGB=255,0,0/
&OBST XB=-77.5,-77,31,31.5,4,4 RGB=255,0,0/
&OBST XB=-77.5,-77,31,31.5,4,4 RGB=255,0,0/
&OBST XB=-77.5,-77,31,31.5,4,4 RGB=255,0,0/
&OBST XB=-77.5,-77,31.5,32,4,4 RGB=255,0,0/
&OBST XB=-77.5,-77,31.5,32,4,4 RGB=255,0,0/
&OBST XB=-77,-76.5,29.5,30,4.5,4.5 RGB=255,0,0/
&OBST XB=-77,-76.5,29.5,30,4.5,4.5 RGB=255,0,0/
&OBST XB=-77,-76.5,29.5,30,4.5,4.5 RGB=255,0,0/
&OBST XB=-77,-76.5,30,30.5,4.5,4.5 RGB=255,0,0/
&OBST XB=-77,-76.5,30,30.5,4.5,4.5 RGB=255,0,0/
&OBST XB=-77,-76.5,30,30.5,4.5,4.5 RGB=255,0,0/
&OBST XB=-77,-76.5,30.5,31,4.5,4.5 RGB=255,0,0/
&OBST XB=-77,-76.5,30.5,31,4.5,4.5 RGB=255,0,0/
&OBST XB=-77,-76.5,30.5,31,4.5,4.5 RGB=255,0,0/
&OBST XB=-77,-76.5,31,31.5,4.5,4.5 RGB=255,0,0/
&OBST XB=-77,-76.5,31,31.5,4.5,4.5 RGB=255,0,0/
&OBST XB=-77,-76.5,31,31.5,4.5,4.5 RGB=255,0,0/
&OBST XB=-77,-76.5,31.5,32,4.5,4.5 RGB=255,0,0/
&OBST XB=-77,-76.5,31.5,32,4.5,4.5 RGB=255,0,0/
&OBST XB=-77,-76.5,31.5,32,4.5,4.5 RGB=255,0,0/
&OBST XB=-76.5,-76,29.5,30,5,5 RGB=255,0,0/
&OBST XB=-76.5,-76,30,30.5,5,5 RGB=255,0,0/
&OBST XB=-76.5,-76,30.5,31,5,5 RGB=255,0,0/
&OBST XB=-76.5,-76,30.5,31,5,5 RGB=255,0,0/
&OBST XB=-76.5,-76,30.5,31,5,5 RGB=255,0,0/
&OBST XB=-76.5,-76,31,31.5,5,5 RGB=255,0,0/
&OBST XB=-76.5,-76,31.5,32,5,5 RGB=255,0,0/
&OBST XB=-77.5,-77.5,29.5,30,3.5,4 RGB=255,0,0/
&OBST XB=-77,-77,29.5,30,4,4.5 RGB=255,0,0/
&OBST XB=-76.5,-76.5,29.5,30,4.5,5 RGB=255,0,0/
&OBST XB=-77.5,-77.5,30,30.5,3.5,4 RGB=255,0,0/
&OBST XB=-77.5,-77.5,30,30.5,3.5,4 RGB=255,0,0/
&OBST XB=-77,-77,30,30.5,4,4.5 RGB=255,0,0/
&OBST XB=-76.5,-76.5,30,30.5,4.5,5 RGB=255,0,0/
&OBST XB=-77.5,-77.5,30.5,31,3.5,4 RGB=255,0,0/
&OBST XB=-77,-77,30.5,31,4,4.5 RGB=255,0,0/
&OBST XB=-76.5,-76.5,30.5,31,4.5,5 RGB=255,0,0/
&OBST XB=-76.5,-76.5,30.5,31,4.5,5 RGB=255,0,0/
&OBST XB=-76.5,-76.5,30.5,31,4.5,5 RGB=255,0,0/
&OBST XB=-77.5,-77.5,31,31.5,3.5,4 RGB=255,0,0/
&OBST XB=-77.5,-77.5,31,31.5,3.5,4 RGB=255,0,0/
&OBST XB=-77,-77,31,31.5,4,4.5 RGB=255,0,0/
&OBST XB=-76.5,-76.5,31,31.5,4.5,5 RGB=255,0,0/
&OBST XB=-77.5,-77.5,31.5,32,3.5,4 RGB=255,0,0/
&OBST XB=-77,-77,31.5,32,4,4.5 RGB=255,0,0/
&OBST XB=-76.5,-76.5,31.5,32,4.5,5 RGB=255,0,0/
Lestnica 15
&OBST XB=-49.5,-49,30,30.5,0,0 RGB=255,0,0/
&OBST XB=-49.5,-49,30,30.5,0,0 RGB=255,0,0/
&OBST XB=-49.5,-49,30.5,31,0,0 RGB=255,0,0/
&OBST XB=-49.5,-49,30.5,31,0,0 RGB=255,0,0/
&OBST XB=-49.5,-49,31,31.5,0,0 RGB=255,0,0/
&OBST XB=-49.5,-49,31,31.5,0,0 RGB=255,0,0/
&OBST XB=-49.5,-49,31.5,32,0,0 RGB=255,0,0/
&OBST XB=-49.5,-49,31.5,32,0,0 RGB=255,0,0/
&OBST XB=-49.5,-49,32,32.5,0,0 RGB=255,0,0/
&OBST XB=-49,-48.5,30,30.5,0.5,0.5 RGB=255,0,0/
&OBST XB=-49,-48.5,30,30.5,0.5,1 RGB=255,0,0/
&OBST XB=-49,-48.5,30,30.5,1,1 RGB=255,0,0/
&OBST XB=-49,-48.5,30,30.5,1,1 RGB=255,0,0/
&OBST XB=-49,-48.5,30.5,31,0.5,0.5 RGB=255,0,0/
&OBST XB=-49,-48.5,30.5,31,0.5,1 RGB=255,0,0/
&OBST XB=-49,-48.5,30.5,31,1,1 RGB=255,0,0/
&OBST XB=-49,-48.5,31,31.5,0.5,0.5 RGB=255,0,0/
&OBST XB=-49,-48.5,31,31.5,0.5,1 RGB=255,0,0/
&OBST XB=-49,-48.5,31,31.5,1,1 RGB=255,0,0/
&OBST XB=-49,-48.5,31.5,32,0.5,0.5 RGB=255,0,0/
&OBST XB=-49,-48.5,31.5,32,0.5,1 RGB=255,0,0/
&OBST XB=-49,-48.5,31.5,32,1,1 RGB=255,0,0/
&OBST XB=-49,-48.5,31.5,32,1,1 RGB=255,0,0/
&OBST XB=-48.5,-48,30,30.5,1,1.5 RGB=255,0,0/
&OBST XB=-48.5,-48,30,30.5,1.5,1.5 RGB=255,0,0/
&OBST XB=-48.5,-48,30.5,31,1,1.5 RGB=255,0,0/
&OBST XB=-48.5,-48,30.5,31,1.5,1.5 RGB=255,0,0/
&OBST XB=-48.5,-48,31,31.5,1,1.5 RGB=255,0,0/
&OBST XB=-48.5,-48,31,31.5,1.5,1.5 RGB=255,0,0/
&OBST XB=-48.5,-48,31.5,32,1,1.5 RGB=255,0,0/
&OBST XB=-48.5,-48,31.5,32,1.5,1.5 RGB=255,0,0/
&OBST XB=-48,-47.5,30,30.5,2,2 RGB=255,0,0/
&OBST XB=-48,-47.5,30,30.5,2,2 RGB=255,0,0/
&OBST XB=-48,-47.5,30,30.5,2,2 RGB=255,0,0/
&OBST XB=-48,-47.5,30.5,31,2,2 RGB=255,0,0/
&OBST XB=-48,-47.5,30.5,31,2,2 RGB=255,0,0/
&OBST XB=-48,-47.5,30.5,31,2,2 RGB=255,0,0/
&OBST XB=-48,-47.5,30.5,31,2,2 RGB=255,0,0/
&OBST XB=-48,-47.5,31,31.5,2,2 RGB=255,0,0/
&OBST XB=-48,-47.5,31,31.5,2,2 RGB=255,0,0/
&OBST XB=-48,-47.5,31,31.5,2,2 RGB=255,0,0/
&OBST XB=-48,-47.5,31,31.5,2,2 RGB=255,0,0/
&OBST XB=-48,-47.5,31.5,32,2,2 RGB=255,0,0/
&OBST XB=-48,-47.5,31.5,32,2,2 RGB=255,0,0/
&OBST XB=-48,-47.5,31.5,32,2,2 RGB=255,0,0/
&OBST XB=-47.5,-47,30,30.5,2.5,2.5 RGB=255,0,0/
&OBST XB=-47.5,-47,30.5,31,2.5,2.5 RGB=255,0,0/
&OBST XB=-47.5,-47,31,31.5,2.5,2.5 RGB=255,0,0/
&OBST XB=-47.5,-47,31.5,32,2.5,2.5 RGB=255,0,0/
&OBST XB=-49,-49,30,30.5,0,0.5 RGB=255,0,0/
&OBST XB=-48,-48,30,30.5,1.5,2 RGB=255,0,0/
&OBST XB=-47.5,-47.5,30,30.5,2,2.5 RGB=255,0,0/
&OBST XB=-49,-49,30.5,31,0,0.5 RGB=255,0,0/
&OBST XB=-48,-48,30.5,31,1.5,2 RGB=255,0,0/
&OBST XB=-48,-48,30.5,31,1.5,2 RGB=255,0,0/
&OBST XB=-47.5,-47.5,30.5,31,2,2.5 RGB=255,0,0/
&OBST XB=-49,-49,31,31.5,0,0.5 RGB=255,0,0/
&OBST XB=-48,-48,31,31.5,1.5,2 RGB=255,0,0/
&OBST XB=-47.5,-47.5,31,31.5,2,2.5 RGB=255,0,0/
&OBST XB=-47.5,-47.5,31,31.5,2,2.5 RGB=255,0,0/
&OBST XB=-49,-49,31.5,32,0,0.5 RGB=255,0,0/
&OBST XB=-48,-48,31.5,32,1.5,2 RGB=255,0,0/
&OBST XB=-47.5,-47.5,31.5,32,2,2.5 RGB=255,0,0/
&OBST XB=-49.5,-49,30,30,0,0.5 RGB=255,0,0/
&OBST XB=-49.5,-49,32,32,0,0.5 RGB=255,0,0/
Lestnica 16
&OBST XB=-49.5,-49,33.5,34,4.5,5 RGB=255,0,0/
&OBST XB=-49.5,-49,33.5,34,5,5 RGB=255,0,0/
&OBST XB=-49.5,-49,34,34.5,4.5,5 RGB=255,0,0/
&OBST XB=-49.5,-49,34,34.5,4.5,5 RGB=255,0,0/
&OBST XB=-49.5,-49,34,34.5,5,5 RGB=255,0,0/
&OBST XB=-49.5,-49,34.5,35,4.5,5 RGB=255,0,0/
&OBST XB=-49.5,-49,34.5,35,5,5 RGB=255,0,0/
&OBST XB=-49.5,-49,35,35.5,4.5,5 RGB=255,0,0/
&OBST XB=-49.5,-49,35,35.5,5,5 RGB=255,0,0/
&OBST XB=-49,-48.5,33.5,34,4,4 RGB=255,0,0/
&OBST XB=-49,-48.5,33.5,34,4,4 RGB=255,0,0/
&OBST XB=-49,-48.5,33.5,34,4.5,4.5 RGB=255,0,0/