&HEAD CHID='c6aeece5' TITLE='Riski_aAvtoSt__19:_Scenarij_6' FYI='Fajl sgenerirovan Fenix+ 3 Ultimate 3.2.3.0 dlya FDS6'/
&DUMP DT_RESTART=550/
&TIME T_END=550/
&MISC VISIBILITY_FACTOR=2.38 MAX_LEAK_PATHS=0 BNDF_DEFAULT=.False./
&COMB /
&WIND /
&DEVC ID='CLOCK' QUANTITY='TIME' XYZ=680.425,90.1,-4.45/
ComputationAreas
&MESH ID='Mesh01', IJK=53,39,3, XB=566.1,611.83,-10.2,23.23333333333333,-5.85,-3.05 /
&MESH ID='Mesh02', IJK=53,39,3, XB=566.1,611.83,23.23333333333333,56.66666666666666,-5.85,-3.05 /
&MESH ID='Mesh03', IJK=53,39,3, XB=566.1,611.83,56.66666666666666,90.09999999999998,-5.85,-3.05 /
&MESH ID='Mesh04', IJK=53,39,3, XB=566.1,611.83,90.09999999999998,123.53333333333332,-5.85,-3.05 /
&MESH ID='Mesh05', IJK=53,39,3, XB=566.1,611.83,123.53333333333332,156.96666666666667,-5.85,-3.05 /
&MESH ID='Mesh06', IJK=53,39,3, XB=566.1,611.83,156.96666666666667,190.39999999999998,-5.85,-3.05 /
&MESH ID='Mesh07', IJK=53,39,3, XB=611.83,657.5600000000001,-10.2,23.23333333333333,-5.85,-3.05 /
&MESH ID='Mesh08', IJK=53,39,3, XB=611.83,657.5600000000001,23.23333333333333,56.66666666666666,-5.85,-3.05 /
&MESH ID='Mesh09', IJK=53,39,3, XB=611.83,657.5600000000001,56.66666666666666,90.09999999999998,-5.85,-3.05 /
&MESH ID='Mesh10', IJK=53,39,3, XB=611.83,657.5600000000001,90.09999999999998,123.53333333333332,-5.85,-3.05 /
&MESH ID='Mesh11', IJK=53,39,3, XB=611.83,657.5600000000001,123.53333333333332,156.96666666666667,-5.85,-3.05 /
&MESH ID='Mesh12', IJK=53,39,3, XB=611.83,657.5600000000001,156.96666666666667,190.39999999999998,-5.85,-3.05 /
&MESH ID='Mesh13', IJK=53,39,3, XB=657.5600000000001,703.29,-10.2,23.23333333333333,-5.85,-3.05 /
&MESH ID='Mesh14', IJK=53,39,3, XB=657.5600000000001,703.29,23.23333333333333,56.66666666666666,-5.85,-3.05 /
&MESH ID='Mesh15', IJK=53,39,3, XB=657.5600000000001,703.29,56.66666666666666,90.09999999999998,-5.85,-3.05 /
&MESH ID='Mesh16', IJK=53,39,3, XB=657.5600000000001,703.29,90.09999999999998,123.53333333333332,-5.85,-3.05 /
&MESH ID='Mesh17', IJK=53,39,3, XB=657.5600000000001,703.29,123.53333333333332,156.96666666666667,-5.85,-3.05 /
&MESH ID='Mesh18', IJK=53,39,3, XB=657.5600000000001,703.29,156.96666666666667,190.39999999999998,-5.85,-3.05 /
&MESH ID='Mesh19', IJK=53,39,3, XB=703.29,749.02,-10.2,23.23333333333333,-5.85,-3.05 /
&MESH ID='Mesh20', IJK=53,39,3, XB=703.29,749.02,23.23333333333333,56.66666666666666,-5.85,-3.05 /
&MESH ID='Mesh21', IJK=53,39,3, XB=703.29,749.02,56.66666666666666,90.09999999999998,-5.85,-3.05 /
&MESH ID='Mesh22', IJK=53,39,3, XB=703.29,749.02,90.09999999999998,123.53333333333332,-5.85,-3.05 /
&MESH ID='Mesh23', IJK=53,39,3, XB=703.29,749.02,123.53333333333332,156.96666666666667,-5.85,-3.05 /
&MESH ID='Mesh24', IJK=53,39,3, XB=703.29,749.02,156.96666666666667,190.39999999999998,-5.85,-3.05 /
&MESH ID='Mesh25', IJK=53,39,3, XB=749.02,794.75,-10.2,23.23333333333333,-5.85,-3.05 /
&MESH ID='Mesh26', IJK=53,39,3, XB=749.02,794.75,23.23333333333333,56.66666666666666,-5.85,-3.05 /
&MESH ID='Mesh27', IJK=53,39,3, XB=749.02,794.75,56.66666666666666,90.09999999999998,-5.85,-3.05 /
&MESH ID='Mesh28', IJK=53,39,3, XB=749.02,794.75,90.09999999999998,123.53333333333332,-5.85,-3.05 /
&MESH ID='Mesh29', IJK=53,39,3, XB=749.02,794.75,123.53333333333332,156.96666666666667,-5.85,-3.05 /
&MESH ID='Mesh30', IJK=53,39,3, XB=749.02,794.75,156.96666666666667,190.39999999999998,-5.85,-3.05 /
&VENT XB=566.1,566.1,-10.2,190.4,-5.85,-3.05 SURF_ID='OPEN'/
&VENT XB=794.75,794.75,-10.2,190.4,-5.85,-3.05 SURF_ID='OPEN'/
&VENT XB=566.1,794.75,-10.2,-10.2,-5.85,-3.05 SURF_ID='OPEN'/
&VENT XB=566.1,794.75,190.4,190.4,-5.85,-3.05 SURF_ID='OPEN'/
&SPEC ID='OXYGEN' LUMPED_COMPONENT_ONLY=.True./
&SPEC ID='NITROGEN' LUMPED_COMPONENT_ONLY=.True./
&SPEC ID='CARBON DIOXIDE' LUMPED_COMPONENT_ONLY=.True./
&SPEC ID='CARBON MONOXIDE' LUMPED_COMPONENT_ONLY=.True./
&SPEC ID='HYDROGEN CHLORIDE' LUMPED_COMPONENT_ONLY=.True./
&SPEC ID='WATER VAPOR' LUMPED_COMPONENT_ONLY=.True./
&SPEC ID='SOOT' LUMPED_COMPONENT_ONLY=.True./
&SPEC ID='SPEC_1' MW=104.3233/
&SPEC ID='AIR' BACKGROUND=.True. SPEC_ID(1:2)='OXYGEN','NITROGEN' VOLUME_FRACTION(1:2)=1,3.7619/
&SPEC ID='PRODUCTS' SPEC_ID(1:6)='SOOT','CARBON DIOXIDE','CARBON MONOXIDE','HYDROGEN CHLORIDE','WATER VAPOR','NITROGEN' VOLUME_FRACTION(1:6)=0.486208677530734,3.06976160828912,0.361275400659048,0.031187456220273,12.6304974369969,32.3786545368201/
&REAC FUEL='SPEC_1' HEAT_OF_COMBUSTION=31700 SPEC_ID_NU(1:3)='SPEC_1','AIR','PRODUCTS' NU(1:3)=-1,-8.60699501231296,1/
d5be548950264215b78f6f040b68e54f
&OBST XB=636.65,637.5,172.55,173.4,-5.85,-5.85 RGB=127,127,127/
&OBST XB=636.65,637.5,173.4,174.25,-4.91666666666667,-4.91666666666667 RGB=127,127,127/
&OBST XB=636.65,637.5,174.25,175.1,-4.91666666666667,-4.91666666666667 RGB=127,127,127/
&OBST XB=636.65,637.5,173.4,173.4,-5.85,-4.91666666666667 RGB=127,127,127/
7a5dc7a11f5e44d79129b8ae4bc4bcb8
&OBST XB=634.95,635.8,172.55,173.4,-3.05,-3.05 RGB=127,127,127/
&OBST XB=634.95,635.8,173.4,174.25,-3.98333333333333,-3.98333333333333 RGB=127,127,127/
&OBST XB=634.95,635.8,174.25,175.1,-3.98333333333333,-3.98333333333333 RGB=127,127,127/
&OBST XB=634.95,635.8,173.4,173.4,-3.98333333333333,-3.05 RGB=127,127,127/
&OBST XB=634.95,635.8,174.25,175.1,-4.91666666666667,-3.98333333333333 RGB=127,127,127/
3668ac8f0dfe4e979603c8e6617f9253
&OBST XB=657.9,658.75,141.95,142.8,-4.91666666666667,-4.91666666666667 RGB=127,127,127/
&OBST XB=658.75,659.6,141.95,142.8,-5.85,-5.85 RGB=127,127,127/
&OBST XB=658.75,658.75,141.95,142.8,-5.85,-4.91666666666667 RGB=127,127,127/
09ca3844cd46427d857f7db91cce696c
&OBST XB=657.9,657.9,140.25,141.1,-4.91666666666667,-3.98333333333333 RGB=127,127,127/
&OBST XB=658.75,658.75,140.25,141.1,-3.98333333333333,-3.05 RGB=127,127,127/
&OBST XB=657.9,657.9,141.1,141.95,-4.91666666666667,-3.98333333333333 RGB=127,127,127/
&OBST XB=658.75,658.75,141.1,141.95,-3.98333333333333,-3.05 RGB=127,127,127/
&OBST XB=657.9,658.75,140.25,141.1,-3.98333333333333,-3.98333333333333 RGB=127,127,127/
&OBST XB=657.9,658.75,141.1,141.95,-3.98333333333333,-3.98333333333333 RGB=127,127,127/
&OBST XB=658.75,659.6,140.25,141.1,-3.05,-3.05 RGB=127,127,127/
&OBST XB=658.75,659.6,141.1,141.95,-3.05,-3.05 RGB=127,127,127/
93cbd65f8d774a048f70cd4e53abd036
&OBST XB=594.15,595,141.95,142.8,-4.91666666666667,-4.91666666666667 RGB=127,127,127/
&OBST XB=595,595.85,141.95,142.8,-5.85,-5.85 RGB=127,127,127/
&OBST XB=595,595,141.95,142.8,-5.85,-4.91666666666667 RGB=127,127,127/
d6ca2f476652400d97ff1af6b58b3fc0
&OBST XB=594.15,594.15,140.25,141.1,-4.91666666666667,-3.98333333333333 RGB=127,127,127/
&OBST XB=595,595,140.25,141.1,-3.98333333333333,-3.05 RGB=127,127,127/
&OBST XB=594.15,594.15,141.1,141.95,-4.91666666666667,-3.98333333333333 RGB=127,127,127/
&OBST XB=595,595,141.1,141.95,-3.98333333333333,-3.05 RGB=127,127,127/
&OBST XB=594.15,595,140.25,141.1,-3.98333333333333,-3.98333333333333 RGB=127,127,127/
&OBST XB=594.15,595,141.1,141.95,-3.98333333333333,-3.98333333333333 RGB=127,127,127/
&OBST XB=595,595.85,140.25,141.1,-3.05,-3.05 RGB=127,127,127/
&OBST XB=595,595.85,141.1,141.95,-3.05,-3.05 RGB=127,127,127/
e3116a40c66a4535bd6110c2d71cb693
&OBST XB=594.15,595,98.6,99.45,-4.91666666666667,-4.91666666666667 RGB=127,127,127/
&OBST XB=594.15,595,99.45,100.3,-4.91666666666667,-4.91666666666667 RGB=127,127,127/
&OBST XB=595,595.85,98.6,99.45,-5.85,-5.85 RGB=127,127,127/
&OBST XB=595,595.85,99.45,100.3,-5.85,-5.85 RGB=127,127,127/
&OBST XB=595,595,98.6,99.45,-5.85,-4.91666666666667 RGB=127,127,127/
&OBST XB=595,595,99.45,100.3,-5.85,-4.91666666666667 RGB=127,127,127/
464e777d074444d59e1124723042ca7e
&OBST XB=594.15,594.15,96.9,97.75,-4.91666666666667,-3.98333333333333 RGB=127,127,127/
&OBST XB=595,595,96.9,97.75,-3.98333333333333,-3.05 RGB=127,127,127/
&OBST XB=594.15,594.15,97.75,98.6,-4.91666666666667,-3.98333333333333 RGB=127,127,127/
&OBST XB=595,595,97.75,98.6,-3.98333333333333,-3.05 RGB=127,127,127/
&OBST XB=594.15,595,96.9,97.75,-3.98333333333333,-3.98333333333333 RGB=127,127,127/
&OBST XB=594.15,595,97.75,98.6,-3.98333333333333,-3.98333333333333 RGB=127,127,127/
&OBST XB=595,595.85,96.9,97.75,-3.05,-3.05 RGB=127,127,127/
&OBST XB=595,595.85,97.75,98.6,-3.05,-3.05 RGB=127,127,127/
287e62a83129488abf80ec31f4fb68a6
&OBST XB=657.9,658.75,98.6,99.45,-4.91666666666667,-4.91666666666667 RGB=127,127,127/
&OBST XB=658.75,659.6,98.6,99.45,-5.85,-5.85 RGB=127,127,127/
&OBST XB=658.75,658.75,98.6,99.45,-5.85,-4.91666666666667 RGB=127,127,127/
aaac55d058ee4483a8001efa60819431
&OBST XB=657.9,657.9,96.9,97.75,-4.91666666666667,-3.98333333333333 RGB=127,127,127/
&OBST XB=658.75,658.75,96.9,97.75,-3.98333333333333,-3.05 RGB=127,127,127/
&OBST XB=657.9,657.9,97.75,98.6,-4.91666666666667,-3.98333333333333 RGB=127,127,127/
&OBST XB=658.75,658.75,97.75,98.6,-3.98333333333333,-3.05 RGB=127,127,127/
&OBST XB=657.9,658.75,96.9,97.75,-3.98333333333333,-3.98333333333333 RGB=127,127,127/
&OBST XB=657.9,658.75,97.75,98.6,-3.98333333333333,-3.98333333333333 RGB=127,127,127/
&OBST XB=658.75,659.6,96.9,97.75,-3.05,-3.05 RGB=127,127,127/
&OBST XB=658.75,659.6,97.75,98.6,-3.05,-3.05 RGB=127,127,127/
ca11ddae31da414b89ab31b60063ca05
&OBST XB=634.95,637.5,175.1,176.8,-4.91666666666667,-4.91666666666667 RGB=127,127,127/
7bcc1ca552924a82adc954ceb76117ea
&OBST XB=656.2,657.9,140.25,143.65,-4.91666666666667,-4.91666666666667 RGB=127,127,127/
11d4600b06e24748a2d5813dd9795b5b
&OBST XB=592.45,594.15,140.25,143.65,-4.91666666666667,-4.91666666666667 RGB=127,127,127/
e9bfa95b18d242718f787ef794fc2665
&OBST XB=592.45,594.15,96.9,100.3,-4.91666666666667,-4.91666666666667 RGB=127,127,127/
8d1861d09d6b4620897d048cb7dde4cf
&OBST XB=656.2,657.9,96.9,100.3,-4.91666666666667,-4.91666666666667 RGB=127,127,127/
331bfd3f0ab5471285d6643f663fa5fd
&OBST XB=599.25,641.75,9.35,9.35,-5.85,-3.05 RGB=0,0,255/
6592b88d2d2c46aba601c1171dd12a1c
&OBST XB=640.9,641.75,6.8,10.2,-5.85,-3.05 RGB=0,0,255/
62656d631c0945d08e8e75bcb4283e80
&OBST XB=641.75,648.55,6.8,6.8,-5.85,-3.05 RGB=0,0,255/
564a7fc82c0d403c9b0ef1e810cedf64
&OBST XB=647.7,647.7,6.8,35.7,-5.85,-3.05 RGB=0,0,255/
2db7a1af6f3a4e569801fb382d56f634
&OBST XB=599.25,602.65,38.25,38.25,-5.85,-3.05 RGB=0,0,255/
662d5007d2c04c71af3c1962d14ab030
&OBST XB=602.65,602.65,38.25,43.35,-5.85,-3.05 RGB=0,0,255/
58d5bf2668ca44f2bffbbde415551ecf
&OBST XB=601.8,601.8,27.2,38.25,-5.85,-3.05 RGB=0,0,255/
24908e35c550485e9a392272285f43c4
&OBST XB=598.4,601.8,27.2,27.2,-5.85,-3.05 RGB=0,0,255/
54852e0603a340aa9cb40ffb49904f07
&OBST XB=599.25,601.8,24.65,25.5,-5.85,-3.05 RGB=0,0,255/
b540b207fd814aa09fcaffe86fd4cf76
&OBST XB=601.8,601.8,19.55,27.2,-5.85,-3.05 RGB=0,0,255/
ea3feba535bb4a19bb49d8302ea07e78
&OBST XB=599.25,601.8,19.55,20.4,-5.85,-3.05 RGB=0,0,255/
f04d345dc2a14445ad550f20d5b53a3f
&OBST XB=600.95,601.8,14.45,19.55,-5.85,-3.05 RGB=0,0,255/
4deb585e1440435387f0938ee4f7af16
&OBST XB=599.25,600.95,14.45,14.45,-5.85,-3.05 RGB=0,0,255/
a66edebce1af45b7b6dbf6e19715d95f
&OBST XB=599.25,606.05,11.9,11.9,-5.85,-3.05 RGB=0,0,255/
0fa860ae20fe4a0494ace1bd0ed9d44b
&OBST XB=606.05,606.05,9.35,11.9,-5.85,-3.05 RGB=0,0,255/
a82399e292ed4ccb8ac3842d40670051
&OBST XB=590.75,599.25,8.5,8.5,-5.85,-3.05 RGB=0,0,255/
bfaf91c756364ac1a6e5229e86cc6e01
&OBST XB=590.75,591.6,8.5,12.75,-5.85,-3.05 RGB=0,0,255/
86f2f06ccbaa4914a48d14e938673fa8
&OBST XB=583.95,590.75,9.35,9.35,-5.85,-3.05 RGB=0,0,255/
6d3782d8faa0412d9dd237c3081202e8
&OBST XB=590.75,591.6,13.6,38.25,-5.85,-3.05 RGB=0,0,255/
c0fc1fe0493a4c43bef12fedff7d4714
&OBST XB=639.2,641.75,10.2,11.05,-5.85,-3.05 RGB=0,0,255/
78dfd8ec201d4411895cdf95206e4f59
&OBST XB=655.35,656.2,6.8,26.35,-5.85,-3.05 RGB=0,0,255/
1741961d73b241ad8fe380a4af249f10
&OBST XB=670.65,671.5,8.5,25.5,-5.85,-3.05 RGB=0,0,255/
efb601b3c0d94f2683d7e3d092a899f7
&OBST XB=606.05,606.9,19.55,20.4,-5.85,-3.05 RGB=0,0,255/
39c9109bb1cd4de8879035f8c3e9ece9
&OBST XB=606.9,607.75,19.55,20.4,-5.85,-3.05 RGB=0,0,255/
372b5d11d66947c0858c9047976b38b3
&OBST XB=760.75,776.9,48.45,48.45,-5.85,-3.05 RGB=0,0,255/
7eac706bab074360b275548c5504e393
&OBST XB=760.75,776.9,52.7,53.55,-5.85,-3.05 RGB=0,0,255/
defc48f7d01846f891deeac2a4e72b2c
&OBST XB=606.05,606.9,16.15,17,-5.85,-3.05 RGB=0,0,255/
e8b4fc0566ba421f926044b677fce243
&OBST XB=606.9,607.75,16.15,17,-5.85,-3.05 RGB=0,0,255/
6b51ecbaece844599f15de3d6b922762
&OBST XB=606.05,606.9,23.8,23.8,-5.85,-3.05 RGB=0,0,255/
30685d9cd8524d91a4b047a4d746652b
&OBST XB=606.9,607.75,23.8,23.8,-5.85,-3.05 RGB=0,0,255/
f2265117667847289126d559a5ce711c
&OBST XB=606.05,606.9,27.2,28.05,-5.85,-3.05 RGB=0,0,255/
78b4cdea7ebd4e4392b2d00a4800a0cd
&OBST XB=606.9,607.75,27.2,28.05,-5.85,-3.05 RGB=0,0,255/
6488a3fa75d8413c886a11718dba6958
&OBST XB=606.05,606.9,30.6,31.45,-5.85,-3.05 RGB=0,0,255/
005d3d2ab6204682838a4b0b9119d616
&OBST XB=606.9,607.75,30.6,31.45,-5.85,-3.05 RGB=0,0,255/
3b1a21ac04c04e249d37dc1390e03d36
&OBST XB=606.05,606.9,34,34.85,-5.85,-3.05 RGB=0,0,255/
cb83895adb4d48d79d882abbf18eefce
&OBST XB=606.9,607.75,34,34.85,-5.85,-3.05 RGB=0,0,255/
367d6bcceb2d492c98dd5921cd72d2c7
&OBST XB=606.05,606.9,38.25,38.25,-5.85,-3.05 RGB=0,0,255/
d852d28174a142ed919c771d93cf42d9
&OBST XB=606.9,607.75,38.25,38.25,-5.85,-3.05 RGB=0,0,255/
fa1b793049f241c69ff6e22edb2153a3
&OBST XB=606.05,606.9,41.65,42.5,-5.85,-3.05 RGB=0,0,255/
cd4a9d5cab25463f9e90f39d502813c9
&OBST XB=606.9,607.75,41.65,42.5,-5.85,-3.05 RGB=0,0,255/
e9490b0acc7f477c8c38c226ef760808
&OBST XB=606.05,606.9,45.9,45.9,-5.85,-3.05 RGB=0,0,255/
009d9f3b253a49a6894765722426cdf1
&OBST XB=606.9,607.75,45.9,45.9,-5.85,-3.05 RGB=0,0,255/
c72ccdea793c45c188e4e3df20f65e44
&OBST XB=583.95,589.9,71.4,71.4,-5.85,-3.05 RGB=0,0,255/
d10acbdbe3e441e2b6495251674a8c41
&OBST XB=589.9,589.9,71.4,78.2,-5.85,-3.05 RGB=0,0,255/
&OBST XB=583.95,589.9,78.2,79.05,-5.85,-3.05 RGB=0,0,255/
b7cd8d15fdf3497382a59277be97b3f1
&OBST XB=584.8,584.8,76.5,79.05,-5.85,-3.05 RGB=0,0,255/
46d8f13183204074b07ac8670e6ad1dd
&OBST XB=584.8,584.8,71.4,73.95,-5.85,-3.05 RGB=0,0,255/
c7957e12eb254c47adde635eb47d52d4
&OBST XB=584.8,584.8,73.95,76.5,-5.85,-3.05 RGB=0,0,255/
56e55e82777549eaaa105cb51b5ec362
&OBST XB=585.65,585.65,9.35,14.45,-5.85,-3.05 RGB=0,0,255/
4fc99aebb7d24fd1983a3bf162ad8517
&OBST XB=583.95,585.65,13.6,14.45,-5.85,-3.05 RGB=0,0,255/
2b2eb9918cf64530b790e186a484e613
&OBST XB=585.65,590.75,13.6,14.45,-5.85,-3.05 RGB=0,0,255/
cc6bda16beb143f2814cf7ce8fc6d7bc
&OBST XB=583.95,590.75,18.7,18.7,-5.85,-3.05 RGB=0,0,255/
ba83f93c1d004c41b62754b4c0d30391
&OBST XB=585.65,585.65,18.7,27.2,-5.85,-3.05 RGB=0,0,255/
&OBST XB=586.5,586.5,27.2,30.6,-5.85,-3.05 RGB=0,0,255/
&OBST XB=585.65,586.5,30.6,31.45,-5.85,-3.05 RGB=0,0,255/
&OBST XB=585.65,585.65,31.45,34.85,-5.85,-3.05 RGB=0,0,255/
&OBST XB=585.65,586.5,27.2,27.2,-5.85,-3.05 RGB=0,0,255/
ffb3733cfe0645958a94a0778a052cd2
&OBST XB=583.95,585.65,34,34.85,-5.85,-3.05 RGB=0,0,255/
d87710d0d1cd43cca23cf8762dec6f85
&OBST XB=585.65,590.75,34,34.85,-5.85,-3.05 RGB=0,0,255/
93661f074a0d4aaeaad0f39b99c94106
&OBST XB=583.95,593.3,41.65,42.5,-5.85,-3.05 RGB=0,0,255/
114652d79c914d0ca1adb57fe6d4b757
&OBST XB=592.45,594.15,38.25,38.25,-5.85,-3.05 RGB=0,0,255/
366e0e6eae8e4009898053535ef8d152
&OBST XB=595,599.25,38.25,38.25,-5.85,-3.05 RGB=0,0,255/
97227d05beaf4d94b9598666ef704b7f
&OBST XB=593.3,594.15,38.25,45.9,-5.85,-3.05 RGB=0,0,255/
576ae9d7cc4e4751a5ff80e001e19181
&OBST XB=583.95,594.15,45.9,45.9,-5.85,-3.05 RGB=0,0,255/
7487dee8534e4662921857f1895d899e
&OBST XB=595.85,604.35,45.9,45.9,-5.85,-3.05 RGB=0,0,255/
7217f392b0a14f8e9c1896e8e9a4f56b
&OBST XB=603.5,603.5,43.35,45.9,-5.85,-3.05 RGB=0,0,255/
4eecad227cab4dfb81305573b07a572b
&OBST XB=596.7,603.5,43.35,43.35,-5.85,-3.05 RGB=0,0,255/
fdb3ff05acd84dc19ada02e67c986d8e
&OBST XB=596.7,596.7,43.35,45.9,-5.85,-3.05 RGB=0,0,255/
7bbf453c53e44970a6fbae5d2347ca4e
&OBST XB=596.7,596.7,38.25,43.35,-5.85,-3.05 RGB=0,0,255/
fca929b808ad45359fd8e482b9219563
&OBST XB=599.25,599.25,8.5,38.25,-5.85,-3.05 RGB=0,0,255/
3e0f4721a696477eb5cef02cf3912f0a
&OBST XB=595,595,8.5,13.6,-5.85,-3.05 RGB=0,0,255/
39d7b3f4806f43f9b4e0c36a866d25c8
&OBST XB=596.7,597.55,16.15,16.15,-5.85,-3.05 RGB=0,0,255/
f79efc2d963544cdad16e48d45889aa5
&OBST XB=591.6,593.3,16.15,16.15,-5.85,-3.05 RGB=0,0,255/
113a1878f7ed4d2c9236dafe865182e6
&OBST XB=593.3,594.15,13.6,19.55,-5.85,-3.05 RGB=0,0,255/
&OBST XB=596.7,596.7,13.6,19.55,-5.85,-3.05 RGB=0,0,255/
&OBST XB=594.15,595,13.6,13.6,-5.85,-3.05 RGB=0,0,255/
&OBST XB=595,595.85,13.6,13.6,-5.85,-3.05 RGB=0,0,255/
&OBST XB=595.85,596.7,13.6,13.6,-5.85,-3.05 RGB=0,0,255/
97fff787e4574cc3b9e3487d0bfe663f
&OBST XB=594.15,595.85,19.55,19.55,-5.85,-3.05 RGB=0,0,255/
f20f58f7302f4a27932080de306e15d4
&OBST XB=593.3,599.25,23.8,24.65,-5.85,-3.05 RGB=0,0,255/
aff4971743ef4582b2fa0822fbdba041
&OBST XB=593.3,596.7,30.6,30.6,-5.85,-3.05 RGB=0,0,255/
&OBST XB=593.3,596.7,21.25,21.25,-5.85,-3.05 RGB=0,0,255/
&OBST XB=596.7,597.55,21.25,23.8,-5.85,-3.05 RGB=0,0,255/
&OBST XB=596.7,597.55,28.9,30.6,-5.85,-3.05 RGB=0,0,255/
&OBST XB=593.3,593.3,21.25,22.1,-5.85,-3.05 RGB=0,0,255/
&OBST XB=593.3,593.3,22.1,22.95,-5.85,-3.05 RGB=0,0,255/
&OBST XB=593.3,593.3,22.95,23.8,-5.85,-3.05 RGB=0,0,255/
&OBST XB=593.3,593.3,23.8,24.65,-5.85,-3.05 RGB=0,0,255/
&OBST XB=593.3,593.3,24.65,25.5,-5.85,-3.05 RGB=0,0,255/
&OBST XB=593.3,593.3,25.5,26.35,-5.85,-3.05 RGB=0,0,255/
&OBST XB=593.3,593.3,26.35,27.2,-5.85,-3.05 RGB=0,0,255/
&OBST XB=593.3,593.3,27.2,28.05,-5.85,-3.05 RGB=0,0,255/
&OBST XB=593.3,593.3,28.05,28.9,-5.85,-3.05 RGB=0,0,255/
&OBST XB=593.3,593.3,28.9,29.75,-5.85,-3.05 RGB=0,0,255/
&OBST XB=593.3,593.3,29.75,30.6,-5.85,-3.05 RGB=0,0,255/
042ffd406314460493dfe3c6a4becb27
&OBST XB=593.3,599.25,28.9,28.9,-5.85,-3.05 RGB=0,0,255/
cdfd6d43eea54dae9dba5d91d865d6fd
&OBST XB=595,595,21.25,23.8,-5.85,-3.05 RGB=0,0,255/
eaede88721c74c189d1b293665be93e0
&OBST XB=593.3,594.15,30.6,36.55,-5.85,-3.05 RGB=0,0,255/
&OBST XB=596.7,596.7,30.6,36.55,-5.85,-3.05 RGB=0,0,255/
&OBST XB=594.15,595,36.55,36.55,-5.85,-3.05 RGB=0,0,255/
&OBST XB=595,595.85,36.55,36.55,-5.85,-3.05 RGB=0,0,255/
&OBST XB=595.85,596.7,36.55,36.55,-5.85,-3.05 RGB=0,0,255/
f2b252c607b94b30b51fde86896ddb16
&OBST XB=583.1,595.85,49.3,50.15,-5.85,-3.05 RGB=0,0,255/
b782112b84d2442e833dd1a434d52299
&OBST XB=595.85,596.7,49.3,53.55,-5.85,-3.05 RGB=0,0,255/
67986cea2c3a4351b52459a148353948
&OBST XB=589.05,589.05,46.75,50.15,-5.85,-3.05 RGB=0,0,255/
f7f34880a0474e4299db20f2ef114884
&OBST XB=701.25,702.1,22.1,36.55,-5.85,-3.05 RGB=0,0,255/
6cf35b3588d347899b019c50f4fb2b80
&OBST XB=702.1,707.2,35.7,36.55,-5.85,-3.05 RGB=0,0,255/
3ce02dd2e2d14ef9b1d9c4fb5f023e3d
&OBST XB=702.1,704.65,33.15,34,-5.85,-3.05 RGB=0,0,255/
cca6464d349640ae8aee57474a0c6334
&OBST XB=707.2,707.2,34,37.4,-5.85,-3.05 RGB=0,0,255/
7cbc40d65366465894949e0b4dc0a49d
&OBST XB=707.2,707.2,38.25,40.8,-5.85,-3.05 RGB=0,0,255/
9cb33478d08b47fda929d16ad2c580f1
&OBST XB=701.25,707.2,38.25,39.1,-5.85,-3.05 RGB=0,0,255/
64559c954c3841cca8a749b3ceb96497
&OBST XB=701.25,701.25,41.65,45.9,-5.85,-3.05 RGB=0,0,255/
cea2ae58a59c44fb833c4454979fdd97
&OBST XB=709.75,710.6,41.65,45.9,-5.85,-3.05 RGB=0,0,255/
4c023cea45144a56bed7011e0bc244d3
&OBST XB=715.7,715.7,41.65,46.75,-5.85,-3.05 RGB=0,0,255/
5b1754954c9a4370828a925e37e91bc1
&OBST XB=710.6,715.7,46.75,46.75,-5.85,-3.05 RGB=0,0,255/
b8a4144c5df642f1a612f381175bb5ca
&OBST XB=720.8,721.65,34,39.95,-5.85,-3.05 RGB=0,0,255/
1932ad1340b743b2959d0de7750f6d68
&OBST XB=716.55,716.55,33.15,39.95,-5.85,-3.05 RGB=0,0,255/
d7cd9f177641440ca72e45592bd741c8
&OBST XB=713.15,719.95,33.15,34,-5.85,-3.05 RGB=0,0,255/
43114854594e42afa8605596fe0ebf73
&OBST XB=715.7,715.7,11.9,33.15,-5.85,-3.05 RGB=0,0,255/
d7b95a6693704ec89f85839f1c9669fc
&OBST XB=713.15,721.65,11.05,11.9,-5.85,-3.05 RGB=0,0,255/
5257d9a7d89c4b5cb299ef1aa0109ae0
&OBST XB=719.95,719.95,8.5,11.9,-5.85,-3.05 RGB=0,0,255/
1139d274fb774e89b82ab78205fbdc95
&OBST XB=719.1,719.1,5.95,7.65,-5.85,-3.05 RGB=0,0,255/
43535dac810a4e5b9efa9ac58556d32d
&OBST XB=605.2,606.9,12.75,12.75,-5.85,-3.05 RGB=0,0,255/
3fa2c271d52342e4ba4739fa7b77ee79
&OBST XB=606.9,607.75,12.75,12.75,-5.85,-3.05 RGB=0,0,255/
35ef000bfc5542fe9fbba85b67cf16ce
&OBST XB=613.7,614.55,39.1,39.95,-5.85,-3.05 RGB=0,0,255/
11250ee215ae44908c973e4264175386
&OBST XB=623.9,629,39.1,39.1,-5.85,-3.05 RGB=0,0,255/
c504922726fc43e0997bdac2b2349134
&OBST XB=625.6,625.6,39.1,47.6,-5.85,-3.05 RGB=0,0,255/
&OBST XB=625.6,626.45,47.6,47.6,-5.85,-3.05 RGB=0,0,255/
&OBST XB=626.45,627.3,47.6,47.6,-5.85,-3.05 RGB=0,0,255/
&OBST XB=627.3,628.15,47.6,47.6,-5.85,-3.05 RGB=0,0,255/
&OBST XB=628.15,629,47.6,47.6,-5.85,-3.05 RGB=0,0,255/
9957591354274f6db591e6bc5b89902f
&OBST XB=625.6,629,43.35,44.2,-5.85,-3.05 RGB=0,0,255/
268059219c584ec3959acf899bcacbd0
&OBST XB=632.4,632.4,42.5,47.6,-5.85,-3.05 RGB=0,0,255/
ca1c6a2107c4474abb2053e6e86cc6c9
&OBST XB=622.2,625.6,39.95,39.95,-5.85,-3.05 RGB=0,0,255/
5afc24f958ca4c51b19a0990557e684f
&OBST XB=622.2,623.05,40.8,40.8,-5.85,-3.05 RGB=0,0,255/
ef034796e1e14b46afd8f90d30409622
&OBST XB=622.2,623.05,42.5,42.5,-5.85,-3.05 RGB=0,0,255/
896551a2fcc7414cacd89be239066b2e
&OBST XB=622.2,623.05,43.35,43.35,-5.85,-3.05 RGB=0,0,255/
228837731d564d1ebe408ac510ad10a0
&OBST XB=622.2,622.2,39.95,43.35,-5.85,-3.05 RGB=0,0,255/
42683fd4b0854222a736d89408d8bed3
&OBST XB=623.05,623.05,44.2,47.6,-5.85,-3.05 RGB=0,0,255/
72366a9685274c5a918af2ebcdace991
&OBST XB=629,632.4,43.35,44.2,-5.85,-3.05 RGB=0,0,255/
bdc518d32130405590c4a1c78236b6b2
&OBST XB=629,629,39.95,47.6,-5.85,-3.05 RGB=0,0,255/
03fd6e12894846809d3ec6a78f4c1c93
&OBST XB=629,629,39.1,39.95,-5.85,-3.05 RGB=0,0,255/
5c2d020441b84e5f927e0cbcd6bf8380
&OBST XB=629,632.4,38.25,39.1,-5.85,-3.05 RGB=0,0,255/
70907850a3bf4dff99a767edeabcdabe
&OBST XB=632.4,632.4,39.1,43.35,-5.85,-3.05 RGB=0,0,255/
1fbe267cfb1043c48ac351364a220d41
&OBST XB=632.4,632.4,47.6,48.45,-5.85,-3.05 RGB=0,0,255/
a7c5409dbafb4167818468573c02ad28
&OBST XB=629,629,47.6,48.45,-5.85,-3.05 RGB=0,0,255/
582c100ed2db4edfa5bbce1876a96299
&OBST XB=629,632.4,47.6,47.6,-5.85,-3.05 RGB=0,0,255/
c0cdc852640a411c8b36f458c1404f6c
&OBST XB=632.4,632.4,44.2,45.05,-5.85,-3.05 RGB=0,0,255/
a13aa06642d1484daf870db45e3cd256
&OBST XB=623.05,623.9,39.1,39.95,-5.85,-3.05 RGB=0,0,255/
9154c6deb6e948c88dfc749c11db16bb
&OBST XB=623.05,623.9,43.35,44.2,-5.85,-3.05 RGB=0,0,255/
c31a4534c16a451382c1539b013d00db
&OBST XB=623.05,623.05,39.95,43.35,-5.85,-3.05 RGB=0,0,255/
0fff594eeccc49558eac03cbcce543ea
&OBST XB=624.75,624.75,39.1,39.95,-5.85,-3.05 RGB=0,0,255/
3a061b0d09904128a0fe544eb81ef4b2
&OBST XB=583.95,584.8,9.35,13.6,-5.85,-3.05 RGB=0,0,255/
75b642f6a6c5439199134b124b5192a3
&OBST XB=583.1,583.95,12.75,13.6,-5.85,-3.05 RGB=0,0,255/
f573c04d0cbd4b39bd0009747baa45a1
&OBST XB=583.1,583.95,13.6,14.45,-5.85,-3.05 RGB=0,0,255/
6b0e10829af54f7fb16fcbfa2b40d5d7
&OBST XB=583.1,583.95,14.45,177.65,-5.85,-3.05 RGB=0,0,255/
&OBST XB=583.1,600.95,177.65,178.5,-5.85,-3.05 RGB=0,0,255/
8dc50191bff94ed3a9f25ce59de36b18
&OBST XB=587.35,587.35,173.4,177.65,-5.85,-3.05 RGB=0,0,255/
&OBST XB=587.35,587.35,172.55,173.4,-3.98333333333333,-3.05 RGB=0,0,255/
&OBST XB=586.5,587.35,171.7,172.55,-5.85,-3.05 RGB=0,0,255/
48241b8392584bc1ab23e86683b80d6f
&OBST XB=586.5,587.35,170.85,171.7,-5.85,-3.05 RGB=0,0,255/
cecdd599ae5b470499589a7b21f4678c
&OBST XB=583.1,586.5,170.85,170.85,-5.85,-3.05 RGB=0,0,255/
6d3c9a3f720a42e2bdc7bc29474226ee
&OBST XB=600.95,601.8,162.35,178.5,-5.85,-3.05 RGB=0,0,255/
efde679670114f298dbf2f42d55793e1
&OBST XB=637.5,637.5,176.8,177.65,-5.85,-3.05 RGB=0,0,255/
&OBST XB=634.1,634.1,176.8,177.65,-5.85,-3.05 RGB=0,0,255/
&OBST XB=612,612.85,176.8,177.65,-5.85,-3.05 RGB=0,0,255/
&OBST XB=608.6,609.45,176.8,177.65,-5.85,-3.05 RGB=0,0,255/
&OBST XB=601.8,609.45,177.65,178.5,-5.85,-3.05 RGB=0,0,255/
&OBST XB=612,634.1,177.65,178.5,-5.85,-3.05 RGB=0,0,255/
&OBST XB=637.5,645.15,177.65,178.5,-5.85,-3.05 RGB=0,0,255/
&OBST XB=609.45,610.3,176.8,176.8,-5.85,-3.05 RGB=0,0,255/
&OBST XB=610.3,611.15,176.8,176.8,-5.85,-3.05 RGB=0,0,255/
&OBST XB=611.15,612,176.8,176.8,-5.85,-3.05 RGB=0,0,255/
&OBST XB=634.1,634.95,176.8,176.8,-5.85,-3.05 RGB=0,0,255/
&OBST XB=634.95,635.8,176.8,176.8,-5.85,-3.05 RGB=0,0,255/
&OBST XB=635.8,636.65,176.8,176.8,-5.85,-3.05 RGB=0,0,255/
&OBST XB=636.65,637.5,176.8,176.8,-5.85,-3.05 RGB=0,0,255/
2f9212aa036e4723827fcfd18e16453b
&OBST XB=645.15,645.15,177.65,178.5,-5.85,-3.05 RGB=0,0,255/
564aee731e944176923f39c20cff6065
&OBST XB=645.15,645.15,162.35,178.5,-5.85,-3.05 RGB=0,0,255/
615058e6cd3744b08352413b027efc6c
&OBST XB=645.15,675.75,177.65,178.5,-5.85,-3.05 RGB=0,0,255/
6e0f1a02bd954e7090cd8cf37f569c54
&OBST XB=684.25,684.25,67.15,177.65,-5.85,-3.05 RGB=0,0,255/
&OBST XB=675.75,676.6,67.15,178.5,-5.85,-3.05 RGB=0,0,255/
&OBST XB=684.25,714.85,177.65,178.5,-5.85,-3.05 RGB=0,0,255/
&OBST XB=676.6,677.45,67.15,67.15,-5.85,-3.05 RGB=0,0,255/
&OBST XB=677.45,678.3,67.15,67.15,-5.85,-3.05 RGB=0,0,255/
&OBST XB=678.3,679.15,67.15,67.15,-5.85,-3.05 RGB=0,0,255/
&OBST XB=679.15,680,67.15,67.15,-5.85,-3.05 RGB=0,0,255/
&OBST XB=680,680.85,67.15,67.15,-5.85,-3.05 RGB=0,0,255/
&OBST XB=680.85,681.7,67.15,67.15,-5.85,-3.05 RGB=0,0,255/
&OBST XB=681.7,682.55,67.15,67.15,-5.85,-3.05 RGB=0,0,255/
&OBST XB=682.55,683.4,67.15,67.15,-5.85,-3.05 RGB=0,0,255/
&OBST XB=683.4,684.25,67.15,67.15,-5.85,-3.05 RGB=0,0,255/
eef1be1e2d8544058af97816cfb42403
&OBST XB=696.15,697.85,176.8,177.65,-5.85,-3.05 RGB=0,0,255/
cec6c4b851ab4cde87aa1372af3455a4
&OBST XB=775.2,776.05,140.25,143.65,-5.85,-3.05 RGB=0,0,255/
&OBST XB=751.4,751.4,176.8,177.65,-5.85,-3.05 RGB=0,0,255/
&OBST XB=748,748,176.8,177.65,-5.85,-3.05 RGB=0,0,255/
&OBST XB=725.9,726.75,176.8,177.65,-5.85,-3.05 RGB=0,0,255/
&OBST XB=722.5,723.35,176.8,177.65,-5.85,-3.05 RGB=0,0,255/
&OBST XB=776.9,776.9,143.65,177.65,-5.85,-3.05 RGB=0,0,255/
&OBST XB=714.85,723.35,177.65,178.5,-5.85,-3.05 RGB=0,0,255/
&OBST XB=725.9,748,177.65,178.5,-5.85,-3.05 RGB=0,0,255/
&OBST XB=751.4,776.9,177.65,178.5,-5.85,-3.05 RGB=0,0,255/
&OBST XB=723.35,724.2,176.8,176.8,-5.85,-3.05 RGB=0,0,255/
&OBST XB=724.2,725.05,176.8,176.8,-5.85,-3.05 RGB=0,0,255/
&OBST XB=725.05,725.9,176.8,176.8,-5.85,-3.05 RGB=0,0,255/
&OBST XB=748,748.85,176.8,176.8,-5.85,-3.05 RGB=0,0,255/
&OBST XB=748.85,749.7,176.8,176.8,-5.85,-3.05 RGB=0,0,255/
&OBST XB=749.7,750.55,176.8,176.8,-5.85,-3.05 RGB=0,0,255/
&OBST XB=750.55,751.4,176.8,176.8,-5.85,-3.05 RGB=0,0,255/
&OBST XB=776.05,776.9,143.65,143.65,-5.85,-3.05 RGB=0,0,255/
f673fa310b6648f8aba216f6483b21a1
&OBST XB=761.6,769.25,0.85,1.7,-5.85,-3.05 RGB=0,0,255/
&OBST XB=769.25,776.05,1.7,2.55,-5.85,-3.05 RGB=0,0,255/
&OBST XB=775.2,776.05,2.55,5.1,-5.85,-3.05 RGB=0,0,255/
&OBST XB=775.2,776.9,5.1,5.95,-5.85,-3.05 RGB=0,0,255/
&OBST XB=761.6,761.6,1.7,9.35,-5.85,-3.05 RGB=0,0,255/
&OBST XB=776.9,776.9,5.95,51,-5.85,-3.05 RGB=0,0,255/
&OBST XB=776.9,777.75,51,74.8,-5.85,-3.05 RGB=0,0,255/
&OBST XB=775.2,777.75,74.8,75.65,-5.85,-3.05 RGB=0,0,255/
&OBST XB=775.2,776.05,75.65,78.2,-5.85,-3.05 RGB=0,0,255/
&OBST XB=775.2,776.9,78.2,79.05,-5.85,-3.05 RGB=0,0,255/
&OBST XB=776.9,776.9,79.05,89.25,-5.85,-3.05 RGB=0,0,255/
&OBST XB=776.9,777.75,89.25,96.9,-5.85,-3.05 RGB=0,0,255/
&OBST XB=775.2,777.75,96.9,97.75,-5.85,-3.05 RGB=0,0,255/
&OBST XB=775.2,776.05,97.75,100.3,-5.85,-3.05 RGB=0,0,255/
&OBST XB=776.9,776.9,100.3,118.15,-5.85,-3.05 RGB=0,0,255/
&OBST XB=775.2,776.9,118.15,119,-5.85,-3.05 RGB=0,0,255/
&OBST XB=775.2,776.05,119,121.55,-5.85,-3.05 RGB=0,0,255/
&OBST XB=775.2,776.9,121.55,122.4,-5.85,-3.05 RGB=0,0,255/
&OBST XB=776.9,776.9,122.4,140.25,-5.85,-3.05 RGB=0,0,255/
&OBST XB=776.05,776.9,140.25,140.25,-5.85,-3.05 RGB=0,0,255/
&OBST XB=776.05,776.9,100.3,100.3,-5.85,-3.05 RGB=0,0,255/
596376be7a7943ae9e5d5668ad2ee45f
&OBST XB=753.1,761.6,1.7,2.55,-5.85,-3.05 RGB=0,0,255/
&OBST XB=753.1,753.95,2.55,4.25,-5.85,-3.05 RGB=0,0,255/
e8379e1fd3234e09a32ad2710fdd0133
&OBST XB=749.7,753.1,4.25,4.25,-5.85,-3.05 RGB=0,0,255/
358aa89bc7c741118e1f5f9bcb47cd2f
&OBST XB=753.1,753.95,4.25,5.1,-5.85,-3.05 RGB=0,0,255/
24ffb9ff8cb34d81a51701abd0ecfba6
&OBST XB=753.95,754.8,2.55,5.95,-5.85,-3.05 RGB=0,0,255/
ceba4ef4b4fb4c5e96803fba316e87df
&OBST XB=753.1,755.65,5.1,5.95,-5.85,-3.05 RGB=0,0,255/
a465fa7daf3b4fd0976d542e6b3d879e
&OBST XB=749.7,753.1,5.1,5.95,-5.85,-3.05 RGB=0,0,255/
&OBST XB=748,749.7,5.1,5.95,-3.98333333333333,-3.05 RGB=0,0,255/
&OBST XB=746.3,746.3,3.4,5.1,-5.85,-3.05 RGB=0,0,255/
&OBST XB=746.3,748,5.1,5.95,-5.85,-3.05 RGB=0,0,255/
e14b50cedc3a44b3a70d728887201f5a
&OBST XB=745.45,746.3,3.4,4.25,-5.85,-3.05 RGB=0,0,255/
&OBST XB=743.75,745.45,3.4,4.25,-3.98333333333333,-3.05 RGB=0,0,255/
&OBST XB=730.15,743.75,3.4,4.25,-5.85,-3.05 RGB=0,0,255/
&OBST XB=728.45,730.15,3.4,4.25,-3.98333333333333,-3.05 RGB=0,0,255/
&OBST XB=727.6,728.45,3.4,4.25,-5.85,-3.05 RGB=0,0,255/
241903dc499c48a7a7e3b2bd3f698628
&OBST XB=727.6,728.45,4.25,5.1,-5.85,-3.05 RGB=0,0,255/
&OBST XB=725.9,728.45,5.1,5.95,-5.85,-3.05 RGB=0,0,255/
&OBST XB=725.05,725.9,5.1,5.95,-3.98333333333333,-3.05 RGB=0,0,255/
&OBST XB=719.1,725.05,5.1,5.95,-5.85,-3.05 RGB=0,0,255/
043094b904e64aa999fcac877fac794e
&OBST XB=704.65,712.3,3.4,4.25,-5.85,-3.05 RGB=0,0,255/
&OBST XB=712.3,713.15,3.4,5.1,-5.85,-3.05 RGB=0,0,255/
&OBST XB=713.15,719.1,4.25,5.1,-5.85,-3.05 RGB=0,0,255/
161bcbbce35a4ea1afa823748264e44d
&OBST XB=704.65,704.65,3.4,11.9,-5.85,-3.05 RGB=0,0,255/
c06bc56d779943828bdf98feb6be14aa
&OBST XB=697.85,704.65,4.25,5.1,-5.85,-3.05 RGB=0,0,255/
544d5440afdd4536ac92eaa8b2cded67
&OBST XB=697.85,698.7,5.1,5.95,-5.85,-3.05 RGB=0,0,255/
fddf57c3f8e1452084d546ebdc4c6b60
&OBST XB=698.7,704.65,5.1,5.95,-5.85,-3.05 RGB=0,0,255/
198ee343a97e4b4c9ac077226b23e7c3
&OBST XB=691.9,697.85,4.25,5.1,-5.85,-3.05 RGB=0,0,255/
e2c9185e638647f6b6ac1b27a0b37852
&OBST XB=697.85,698.7,5.95,8.5,-5.85,-3.05 RGB=0,0,255/
5bf7ab9715dc406b8a52d0d7d1dd12b2
&OBST XB=698.7,698.7,7.65,8.5,-5.85,-3.05 RGB=0,0,255/
d8045bd4a9e640c8b35d4d68ad5c7978
&OBST XB=689.35,697.85,7.65,8.5,-5.85,-3.05 RGB=0,0,255/
0e9f56b74efe44f8852a709e1dac0e6a
&OBST XB=689.35,689.35,5.95,7.65,-5.85,-3.05 RGB=0,0,255/
1cbadaa65d894af6a4968df635a38735